
---------- Begin Simulation Statistics ----------
sim_seconds                                  5.625883                       # Number of seconds simulated
sim_ticks                                5625882835500                       # Number of ticks simulated
final_tick                               8415643391500                       # Number of ticks from beginning of simulation (restored from checkpoints and never reset)
sim_freq                                 1000000000000                       # Frequency of simulated ticks
host_inst_rate                                 951708                       # Simulator instruction rate (inst/s)
host_op_rate                                  1167149                       # Simulator op (including micro ops) rate (op/s)
host_tick_rate                            27175319974                       # Simulator tick rate (ticks/s)
host_mem_usage                                 899056                       # Number of bytes of host memory used
host_seconds                                   207.02                       # Real time elapsed on the host
sim_insts                                   197024175                       # Number of instructions simulated
sim_ops                                     241625183                       # Number of ops (including micro ops) simulated
testsys.voltage_domain.voltage                      1                       # Voltage in Volts
testsys.clk_domain.clock                         1000                       # Clock period in ticks
testsys.mem_ctrls.pwrStateResidencyTicks::UNDEFINED 8415643391500                       # Cumulative time (in ticks) in various power states
testsys.mem_ctrls.bytes_read::cpu.dtb.walker        23724                       # Number of bytes read from this memory
testsys.mem_ctrls.bytes_read::cpu.itb.walker        11044                       # Number of bytes read from this memory
testsys.mem_ctrls.bytes_read::cpu.inst      174337352                       # Number of bytes read from this memory
testsys.mem_ctrls.bytes_read::cpu.data       47873500                       # Number of bytes read from this memory
testsys.mem_ctrls.bytes_read::realview.ethernet          912                       # Number of bytes read from this memory
testsys.mem_ctrls.bytes_read::realview.ide        27904                       # Number of bytes read from this memory
testsys.mem_ctrls.bytes_read::total         222274436                       # Number of bytes read from this memory
testsys.mem_ctrls.bytes_inst_read::cpu.inst    174337352                       # Number of instructions bytes read from this memory
testsys.mem_ctrls.bytes_inst_read::total    174337352                       # Number of instructions bytes read from this memory
testsys.mem_ctrls.bytes_written::cpu.data     21387753                       # Number of bytes written to this memory
testsys.mem_ctrls.bytes_written::realview.ethernet          334                       # Number of bytes written to this memory
testsys.mem_ctrls.bytes_written::realview.ide         8192                       # Number of bytes written to this memory
testsys.mem_ctrls.bytes_written::total       21396279                       # Number of bytes written to this memory
testsys.mem_ctrls.num_reads::cpu.dtb.walker         5931                       # Number of read requests responded to by this memory
testsys.mem_ctrls.num_reads::cpu.itb.walker         2761                       # Number of read requests responded to by this memory
testsys.mem_ctrls.num_reads::cpu.inst        43584338                       # Number of read requests responded to by this memory
testsys.mem_ctrls.num_reads::cpu.data         9753983                       # Number of read requests responded to by this memory
testsys.mem_ctrls.num_reads::realview.ethernet           28                       # Number of read requests responded to by this memory
testsys.mem_ctrls.num_reads::realview.ide          464                       # Number of read requests responded to by this memory
testsys.mem_ctrls.num_reads::total           53347505                       # Number of read requests responded to by this memory
testsys.mem_ctrls.num_writes::cpu.data        5354293                       # Number of write requests responded to by this memory
testsys.mem_ctrls.num_writes::realview.ethernet           14                       # Number of write requests responded to by this memory
testsys.mem_ctrls.num_writes::realview.ide          128                       # Number of write requests responded to by this memory
testsys.mem_ctrls.num_writes::total           5354435                       # Number of write requests responded to by this memory
testsys.mem_ctrls.bw_read::cpu.dtb.walker         4217                       # Total read bandwidth from this memory (bytes/s)
testsys.mem_ctrls.bw_read::cpu.itb.walker         1963                       # Total read bandwidth from this memory (bytes/s)
testsys.mem_ctrls.bw_read::cpu.inst          30988443                       # Total read bandwidth from this memory (bytes/s)
testsys.mem_ctrls.bw_read::cpu.data           8509509                       # Total read bandwidth from this memory (bytes/s)
testsys.mem_ctrls.bw_read::realview.ethernet          162                       # Total read bandwidth from this memory (bytes/s)
testsys.mem_ctrls.bw_read::realview.ide          4960                       # Total read bandwidth from this memory (bytes/s)
testsys.mem_ctrls.bw_read::total             39509254                       # Total read bandwidth from this memory (bytes/s)
testsys.mem_ctrls.bw_inst_read::cpu.inst     30988443                       # Instruction read bandwidth from this memory (bytes/s)
testsys.mem_ctrls.bw_inst_read::total        30988443                       # Instruction read bandwidth from this memory (bytes/s)
testsys.mem_ctrls.bw_write::cpu.data          3801671                       # Write bandwidth from this memory (bytes/s)
testsys.mem_ctrls.bw_write::realview.ethernet           59                       # Write bandwidth from this memory (bytes/s)
testsys.mem_ctrls.bw_write::realview.ide         1456                       # Write bandwidth from this memory (bytes/s)
testsys.mem_ctrls.bw_write::total             3803186                       # Write bandwidth from this memory (bytes/s)
testsys.mem_ctrls.bw_total::cpu.dtb.walker         4217                       # Total bandwidth to/from this memory (bytes/s)
testsys.mem_ctrls.bw_total::cpu.itb.walker         1963                       # Total bandwidth to/from this memory (bytes/s)
testsys.mem_ctrls.bw_total::cpu.inst         30988443                       # Total bandwidth to/from this memory (bytes/s)
testsys.mem_ctrls.bw_total::cpu.data         12311179                       # Total bandwidth to/from this memory (bytes/s)
testsys.mem_ctrls.bw_total::realview.ethernet          221                       # Total bandwidth to/from this memory (bytes/s)
testsys.mem_ctrls.bw_total::realview.ide         6416                       # Total bandwidth to/from this memory (bytes/s)
testsys.mem_ctrls.bw_total::total            43312440                       # Total bandwidth to/from this memory (bytes/s)
testsys.mem_ctrls.readReqs                          0                       # Number of read requests accepted
testsys.mem_ctrls.writeReqs                         0                       # Number of write requests accepted
testsys.mem_ctrls.readBursts                        0                       # Number of DRAM read bursts, including those serviced by the write queue
testsys.mem_ctrls.writeBursts                       0                       # Number of DRAM write bursts, including those merged in the write queue
testsys.mem_ctrls.bytesReadDRAM                     0                       # Total number of bytes read from DRAM
testsys.mem_ctrls.bytesReadWrQ                      0                       # Total number of bytes read from write queue
testsys.mem_ctrls.bytesWritten                      0                       # Total number of bytes written to DRAM
testsys.mem_ctrls.bytesReadSys                      0                       # Total read bytes from the system interface side
testsys.mem_ctrls.bytesWrittenSys                   0                       # Total written bytes from the system interface side
testsys.mem_ctrls.servicedByWrQ                     0                       # Number of DRAM read bursts serviced by the write queue
testsys.mem_ctrls.mergedWrBursts                    0                       # Number of DRAM write bursts merged with an existing one
testsys.mem_ctrls.neitherReadNorWriteReqs            0                       # Number of requests that are neither read nor write
testsys.mem_ctrls.perBankRdBursts::0                0                       # Per bank write bursts
testsys.mem_ctrls.perBankRdBursts::1                0                       # Per bank write bursts
testsys.mem_ctrls.perBankRdBursts::2                0                       # Per bank write bursts
testsys.mem_ctrls.perBankRdBursts::3                0                       # Per bank write bursts
testsys.mem_ctrls.perBankRdBursts::4                0                       # Per bank write bursts
testsys.mem_ctrls.perBankRdBursts::5                0                       # Per bank write bursts
testsys.mem_ctrls.perBankRdBursts::6                0                       # Per bank write bursts
testsys.mem_ctrls.perBankRdBursts::7                0                       # Per bank write bursts
testsys.mem_ctrls.perBankRdBursts::8                0                       # Per bank write bursts
testsys.mem_ctrls.perBankRdBursts::9                0                       # Per bank write bursts
testsys.mem_ctrls.perBankRdBursts::10               0                       # Per bank write bursts
testsys.mem_ctrls.perBankRdBursts::11               0                       # Per bank write bursts
testsys.mem_ctrls.perBankRdBursts::12               0                       # Per bank write bursts
testsys.mem_ctrls.perBankRdBursts::13               0                       # Per bank write bursts
testsys.mem_ctrls.perBankRdBursts::14               0                       # Per bank write bursts
testsys.mem_ctrls.perBankRdBursts::15               0                       # Per bank write bursts
testsys.mem_ctrls.perBankWrBursts::0                0                       # Per bank write bursts
testsys.mem_ctrls.perBankWrBursts::1                0                       # Per bank write bursts
testsys.mem_ctrls.perBankWrBursts::2                0                       # Per bank write bursts
testsys.mem_ctrls.perBankWrBursts::3                0                       # Per bank write bursts
testsys.mem_ctrls.perBankWrBursts::4                0                       # Per bank write bursts
testsys.mem_ctrls.perBankWrBursts::5                0                       # Per bank write bursts
testsys.mem_ctrls.perBankWrBursts::6                0                       # Per bank write bursts
testsys.mem_ctrls.perBankWrBursts::7                0                       # Per bank write bursts
testsys.mem_ctrls.perBankWrBursts::8                0                       # Per bank write bursts
testsys.mem_ctrls.perBankWrBursts::9                0                       # Per bank write bursts
testsys.mem_ctrls.perBankWrBursts::10               0                       # Per bank write bursts
testsys.mem_ctrls.perBankWrBursts::11               0                       # Per bank write bursts
testsys.mem_ctrls.perBankWrBursts::12               0                       # Per bank write bursts
testsys.mem_ctrls.perBankWrBursts::13               0                       # Per bank write bursts
testsys.mem_ctrls.perBankWrBursts::14               0                       # Per bank write bursts
testsys.mem_ctrls.perBankWrBursts::15               0                       # Per bank write bursts
testsys.mem_ctrls.numRdRetry                        0                       # Number of times read queue was full causing retry
testsys.mem_ctrls.numWrRetry                        0                       # Number of times write queue was full causing retry
testsys.mem_ctrls.totGap                            0                       # Total gap between requests
testsys.mem_ctrls.readPktSize::0                    0                       # Read request sizes (log2)
testsys.mem_ctrls.readPktSize::1                    0                       # Read request sizes (log2)
testsys.mem_ctrls.readPktSize::2                    0                       # Read request sizes (log2)
testsys.mem_ctrls.readPktSize::3                    0                       # Read request sizes (log2)
testsys.mem_ctrls.readPktSize::4                    0                       # Read request sizes (log2)
testsys.mem_ctrls.readPktSize::5                    0                       # Read request sizes (log2)
testsys.mem_ctrls.readPktSize::6                    0                       # Read request sizes (log2)
testsys.mem_ctrls.writePktSize::0                   0                       # Write request sizes (log2)
testsys.mem_ctrls.writePktSize::1                   0                       # Write request sizes (log2)
testsys.mem_ctrls.writePktSize::2                   0                       # Write request sizes (log2)
testsys.mem_ctrls.writePktSize::3                   0                       # Write request sizes (log2)
testsys.mem_ctrls.writePktSize::4                   0                       # Write request sizes (log2)
testsys.mem_ctrls.writePktSize::5                   0                       # Write request sizes (log2)
testsys.mem_ctrls.writePktSize::6                   0                       # Write request sizes (log2)
testsys.mem_ctrls.rdQLenPdf::0                      0                       # What read queue length does an incoming req see
testsys.mem_ctrls.rdQLenPdf::1                      0                       # What read queue length does an incoming req see
testsys.mem_ctrls.rdQLenPdf::2                      0                       # What read queue length does an incoming req see
testsys.mem_ctrls.rdQLenPdf::3                      0                       # What read queue length does an incoming req see
testsys.mem_ctrls.rdQLenPdf::4                      0                       # What read queue length does an incoming req see
testsys.mem_ctrls.rdQLenPdf::5                      0                       # What read queue length does an incoming req see
testsys.mem_ctrls.rdQLenPdf::6                      0                       # What read queue length does an incoming req see
testsys.mem_ctrls.rdQLenPdf::7                      0                       # What read queue length does an incoming req see
testsys.mem_ctrls.rdQLenPdf::8                      0                       # What read queue length does an incoming req see
testsys.mem_ctrls.rdQLenPdf::9                      0                       # What read queue length does an incoming req see
testsys.mem_ctrls.rdQLenPdf::10                     0                       # What read queue length does an incoming req see
testsys.mem_ctrls.rdQLenPdf::11                     0                       # What read queue length does an incoming req see
testsys.mem_ctrls.rdQLenPdf::12                     0                       # What read queue length does an incoming req see
testsys.mem_ctrls.rdQLenPdf::13                     0                       # What read queue length does an incoming req see
testsys.mem_ctrls.rdQLenPdf::14                     0                       # What read queue length does an incoming req see
testsys.mem_ctrls.rdQLenPdf::15                     0                       # What read queue length does an incoming req see
testsys.mem_ctrls.rdQLenPdf::16                     0                       # What read queue length does an incoming req see
testsys.mem_ctrls.rdQLenPdf::17                     0                       # What read queue length does an incoming req see
testsys.mem_ctrls.rdQLenPdf::18                     0                       # What read queue length does an incoming req see
testsys.mem_ctrls.rdQLenPdf::19                     0                       # What read queue length does an incoming req see
testsys.mem_ctrls.rdQLenPdf::20                     0                       # What read queue length does an incoming req see
testsys.mem_ctrls.rdQLenPdf::21                     0                       # What read queue length does an incoming req see
testsys.mem_ctrls.rdQLenPdf::22                     0                       # What read queue length does an incoming req see
testsys.mem_ctrls.rdQLenPdf::23                     0                       # What read queue length does an incoming req see
testsys.mem_ctrls.rdQLenPdf::24                     0                       # What read queue length does an incoming req see
testsys.mem_ctrls.rdQLenPdf::25                     0                       # What read queue length does an incoming req see
testsys.mem_ctrls.rdQLenPdf::26                     0                       # What read queue length does an incoming req see
testsys.mem_ctrls.rdQLenPdf::27                     0                       # What read queue length does an incoming req see
testsys.mem_ctrls.rdQLenPdf::28                     0                       # What read queue length does an incoming req see
testsys.mem_ctrls.rdQLenPdf::29                     0                       # What read queue length does an incoming req see
testsys.mem_ctrls.rdQLenPdf::30                     0                       # What read queue length does an incoming req see
testsys.mem_ctrls.rdQLenPdf::31                     0                       # What read queue length does an incoming req see
testsys.mem_ctrls.wrQLenPdf::0                      0                       # What write queue length does an incoming req see
testsys.mem_ctrls.wrQLenPdf::1                      0                       # What write queue length does an incoming req see
testsys.mem_ctrls.wrQLenPdf::2                      0                       # What write queue length does an incoming req see
testsys.mem_ctrls.wrQLenPdf::3                      0                       # What write queue length does an incoming req see
testsys.mem_ctrls.wrQLenPdf::4                      0                       # What write queue length does an incoming req see
testsys.mem_ctrls.wrQLenPdf::5                      0                       # What write queue length does an incoming req see
testsys.mem_ctrls.wrQLenPdf::6                      0                       # What write queue length does an incoming req see
testsys.mem_ctrls.wrQLenPdf::7                      0                       # What write queue length does an incoming req see
testsys.mem_ctrls.wrQLenPdf::8                      0                       # What write queue length does an incoming req see
testsys.mem_ctrls.wrQLenPdf::9                      0                       # What write queue length does an incoming req see
testsys.mem_ctrls.wrQLenPdf::10                     0                       # What write queue length does an incoming req see
testsys.mem_ctrls.wrQLenPdf::11                     0                       # What write queue length does an incoming req see
testsys.mem_ctrls.wrQLenPdf::12                     0                       # What write queue length does an incoming req see
testsys.mem_ctrls.wrQLenPdf::13                     0                       # What write queue length does an incoming req see
testsys.mem_ctrls.wrQLenPdf::14                     0                       # What write queue length does an incoming req see
testsys.mem_ctrls.wrQLenPdf::15                     0                       # What write queue length does an incoming req see
testsys.mem_ctrls.wrQLenPdf::16                     0                       # What write queue length does an incoming req see
testsys.mem_ctrls.wrQLenPdf::17                     0                       # What write queue length does an incoming req see
testsys.mem_ctrls.wrQLenPdf::18                     0                       # What write queue length does an incoming req see
testsys.mem_ctrls.wrQLenPdf::19                     0                       # What write queue length does an incoming req see
testsys.mem_ctrls.wrQLenPdf::20                     0                       # What write queue length does an incoming req see
testsys.mem_ctrls.wrQLenPdf::21                     0                       # What write queue length does an incoming req see
testsys.mem_ctrls.wrQLenPdf::22                     0                       # What write queue length does an incoming req see
testsys.mem_ctrls.wrQLenPdf::23                     0                       # What write queue length does an incoming req see
testsys.mem_ctrls.wrQLenPdf::24                     0                       # What write queue length does an incoming req see
testsys.mem_ctrls.wrQLenPdf::25                     0                       # What write queue length does an incoming req see
testsys.mem_ctrls.wrQLenPdf::26                     0                       # What write queue length does an incoming req see
testsys.mem_ctrls.wrQLenPdf::27                     0                       # What write queue length does an incoming req see
testsys.mem_ctrls.wrQLenPdf::28                     0                       # What write queue length does an incoming req see
testsys.mem_ctrls.wrQLenPdf::29                     0                       # What write queue length does an incoming req see
testsys.mem_ctrls.wrQLenPdf::30                     0                       # What write queue length does an incoming req see
testsys.mem_ctrls.wrQLenPdf::31                     0                       # What write queue length does an incoming req see
testsys.mem_ctrls.wrQLenPdf::32                     0                       # What write queue length does an incoming req see
testsys.mem_ctrls.wrQLenPdf::33                     0                       # What write queue length does an incoming req see
testsys.mem_ctrls.wrQLenPdf::34                     0                       # What write queue length does an incoming req see
testsys.mem_ctrls.wrQLenPdf::35                     0                       # What write queue length does an incoming req see
testsys.mem_ctrls.wrQLenPdf::36                     0                       # What write queue length does an incoming req see
testsys.mem_ctrls.wrQLenPdf::37                     0                       # What write queue length does an incoming req see
testsys.mem_ctrls.wrQLenPdf::38                     0                       # What write queue length does an incoming req see
testsys.mem_ctrls.wrQLenPdf::39                     0                       # What write queue length does an incoming req see
testsys.mem_ctrls.wrQLenPdf::40                     0                       # What write queue length does an incoming req see
testsys.mem_ctrls.wrQLenPdf::41                     0                       # What write queue length does an incoming req see
testsys.mem_ctrls.wrQLenPdf::42                     0                       # What write queue length does an incoming req see
testsys.mem_ctrls.wrQLenPdf::43                     0                       # What write queue length does an incoming req see
testsys.mem_ctrls.wrQLenPdf::44                     0                       # What write queue length does an incoming req see
testsys.mem_ctrls.wrQLenPdf::45                     0                       # What write queue length does an incoming req see
testsys.mem_ctrls.wrQLenPdf::46                     0                       # What write queue length does an incoming req see
testsys.mem_ctrls.wrQLenPdf::47                     0                       # What write queue length does an incoming req see
testsys.mem_ctrls.wrQLenPdf::48                     0                       # What write queue length does an incoming req see
testsys.mem_ctrls.wrQLenPdf::49                     0                       # What write queue length does an incoming req see
testsys.mem_ctrls.wrQLenPdf::50                     0                       # What write queue length does an incoming req see
testsys.mem_ctrls.wrQLenPdf::51                     0                       # What write queue length does an incoming req see
testsys.mem_ctrls.wrQLenPdf::52                     0                       # What write queue length does an incoming req see
testsys.mem_ctrls.wrQLenPdf::53                     0                       # What write queue length does an incoming req see
testsys.mem_ctrls.wrQLenPdf::54                     0                       # What write queue length does an incoming req see
testsys.mem_ctrls.wrQLenPdf::55                     0                       # What write queue length does an incoming req see
testsys.mem_ctrls.wrQLenPdf::56                     0                       # What write queue length does an incoming req see
testsys.mem_ctrls.wrQLenPdf::57                     0                       # What write queue length does an incoming req see
testsys.mem_ctrls.wrQLenPdf::58                     0                       # What write queue length does an incoming req see
testsys.mem_ctrls.wrQLenPdf::59                     0                       # What write queue length does an incoming req see
testsys.mem_ctrls.wrQLenPdf::60                     0                       # What write queue length does an incoming req see
testsys.mem_ctrls.wrQLenPdf::61                     0                       # What write queue length does an incoming req see
testsys.mem_ctrls.wrQLenPdf::62                     0                       # What write queue length does an incoming req see
testsys.mem_ctrls.wrQLenPdf::63                     0                       # What write queue length does an incoming req see
testsys.mem_ctrls.totQLat                           0                       # Total ticks spent queuing
testsys.mem_ctrls.totMemAccLat                      0                       # Total ticks spent from burst creation until serviced by the DRAM
testsys.mem_ctrls.totBusLat                         0                       # Total ticks spent in databus transfers
testsys.mem_ctrls.avgQLat                         nan                       # Average queueing delay per DRAM burst
testsys.mem_ctrls.avgBusLat                       nan                       # Average bus latency per DRAM burst
testsys.mem_ctrls.avgMemAccLat                    nan                       # Average memory access latency per DRAM burst
testsys.mem_ctrls.avgRdBW                        0.00                       # Average DRAM read bandwidth in MiByte/s
testsys.mem_ctrls.avgWrBW                        0.00                       # Average achieved write bandwidth in MiByte/s
testsys.mem_ctrls.avgRdBWSys                     0.00                       # Average system read bandwidth in MiByte/s
testsys.mem_ctrls.avgWrBWSys                     0.00                       # Average system write bandwidth in MiByte/s
testsys.mem_ctrls.peakBW                     12800.00                       # Theoretical peak bandwidth in MiByte/s
testsys.mem_ctrls.busUtil                        0.00                       # Data bus utilization in percentage
testsys.mem_ctrls.busUtilRead                    0.00                       # Data bus utilization in percentage for reads
testsys.mem_ctrls.busUtilWrite                   0.00                       # Data bus utilization in percentage for writes
testsys.mem_ctrls.avgRdQLen                      0.00                       # Average read queue length when enqueuing
testsys.mem_ctrls.avgWrQLen                      0.00                       # Average write queue length when enqueuing
testsys.mem_ctrls.readRowHits                       0                       # Number of row buffer hits during reads
testsys.mem_ctrls.writeRowHits                      0                       # Number of row buffer hits during writes
testsys.mem_ctrls.readRowHitRate                  nan                       # Row buffer hit rate for reads
testsys.mem_ctrls.writeRowHitRate                 nan                       # Row buffer hit rate for writes
testsys.mem_ctrls.avgGap                          nan                       # Average gap between requests
testsys.mem_ctrls.pageHitRate                     nan                       # Row buffer hit rate, read and write combined
testsys.mem_ctrls_0.actEnergy                       0                       # Energy for activate commands per rank (pJ)
testsys.mem_ctrls_0.preEnergy                       0                       # Energy for precharge commands per rank (pJ)
testsys.mem_ctrls_0.readEnergy                      0                       # Energy for read commands per rank (pJ)
testsys.mem_ctrls_0.writeEnergy                     0                       # Energy for write commands per rank (pJ)
testsys.mem_ctrls_0.refreshEnergy                   0                       # Energy for refresh commands per rank (pJ)
testsys.mem_ctrls_0.actBackEnergy                   0                       # Energy for active background per rank (pJ)
testsys.mem_ctrls_0.preBackEnergy        3231607062720                       # Energy for precharge background per rank (pJ)
testsys.mem_ctrls_0.actPowerDownEnergy              0                       # Energy for active power-down per rank (pJ)
testsys.mem_ctrls_0.prePowerDownEnergy              0                       # Energy for precharge power-down per rank (pJ)
testsys.mem_ctrls_0.selfRefreshEnergy               0                       # Energy for self refresh per rank (pJ)
testsys.mem_ctrls_0.totalEnergy          3231607062720                       # Total energy per rank (pJ)
testsys.mem_ctrls_0.averagePower                  384                       # Core power per rank (mW)
testsys.mem_ctrls_0.totalIdleTime                   0                       # Total Idle time Per DRAM Rank
testsys.mem_ctrls_0.memoryStateTime::IDLE 8415643391500                       # Time in different power states
testsys.mem_ctrls_0.memoryStateTime::REF            0                       # Time in different power states
testsys.mem_ctrls_0.memoryStateTime::SREF            0                       # Time in different power states
testsys.mem_ctrls_0.memoryStateTime::PRE_PDN            0                       # Time in different power states
testsys.mem_ctrls_0.memoryStateTime::ACT            0                       # Time in different power states
testsys.mem_ctrls_0.memoryStateTime::ACT_PDN            0                       # Time in different power states
testsys.mem_ctrls_1.actEnergy                       0                       # Energy for activate commands per rank (pJ)
testsys.mem_ctrls_1.preEnergy                       0                       # Energy for precharge commands per rank (pJ)
testsys.mem_ctrls_1.readEnergy                      0                       # Energy for read commands per rank (pJ)
testsys.mem_ctrls_1.writeEnergy                     0                       # Energy for write commands per rank (pJ)
testsys.mem_ctrls_1.refreshEnergy                   0                       # Energy for refresh commands per rank (pJ)
testsys.mem_ctrls_1.actBackEnergy                   0                       # Energy for active background per rank (pJ)
testsys.mem_ctrls_1.preBackEnergy        3231607062720                       # Energy for precharge background per rank (pJ)
testsys.mem_ctrls_1.actPowerDownEnergy              0                       # Energy for active power-down per rank (pJ)
testsys.mem_ctrls_1.prePowerDownEnergy              0                       # Energy for precharge power-down per rank (pJ)
testsys.mem_ctrls_1.selfRefreshEnergy               0                       # Energy for self refresh per rank (pJ)
testsys.mem_ctrls_1.totalEnergy          3231607062720                       # Total energy per rank (pJ)
testsys.mem_ctrls_1.averagePower                  384                       # Core power per rank (mW)
testsys.mem_ctrls_1.totalIdleTime                   0                       # Total Idle time Per DRAM Rank
testsys.mem_ctrls_1.memoryStateTime::IDLE 8415643391500                       # Time in different power states
testsys.mem_ctrls_1.memoryStateTime::REF            0                       # Time in different power states
testsys.mem_ctrls_1.memoryStateTime::SREF            0                       # Time in different power states
testsys.mem_ctrls_1.memoryStateTime::PRE_PDN            0                       # Time in different power states
testsys.mem_ctrls_1.memoryStateTime::ACT            0                       # Time in different power states
testsys.mem_ctrls_1.memoryStateTime::ACT_PDN            0                       # Time in different power states
testsys.realview.nvmem.pwrStateResidencyTicks::UNDEFINED 8415643391500                       # Cumulative time (in ticks) in various power states
testsys.realview.vram.pwrStateResidencyTicks::UNDEFINED 8415643391500                       # Cumulative time (in ticks) in various power states
testsys.pwrStateResidencyTicks::UNDEFINED 8415643391500                       # Cumulative time (in ticks) in various power states
testsys.bridge.pwrStateResidencyTicks::UNDEFINED 8415643391500                       # Cumulative time (in ticks) in various power states
testsys.cf0.dma_read_full_pages                     0                       # Number of full page size DMA reads (not PRD).
testsys.cf0.dma_read_bytes                      27648                       # Number of bytes transfered via DMA reads (not PRD).
testsys.cf0.dma_read_txs                           24                       # Number of DMA read transactions (not PRD).
testsys.cf0.dma_write_full_pages                    0                       # Number of full page size DMA writes.
testsys.cf0.dma_write_bytes                      8192                       # Number of bytes transfered via DMA writes.
testsys.cf0.dma_write_txs                           8                       # Number of DMA write transactions.
testsys.cpu_voltage_domain.voltage                  1                       # Voltage in Volts
testsys.cpu_clk_domain.clock                      500                       # Clock period in ticks
testsys.cpu.dstage2_mmu.stage2_tlb.walker.pwrStateResidencyTicks::UNDEFINED 8415643391500                       # Cumulative time (in ticks) in various power states
testsys.cpu.dstage2_mmu.stage2_tlb.walker.walks            0                       # Table walker walks requested
testsys.cpu.dstage2_mmu.stage2_tlb.walker.walkRequestOrigin_Requested::Data            0                       # Table walker requests started/completed, data/inst
testsys.cpu.dstage2_mmu.stage2_tlb.walker.walkRequestOrigin_Requested::Inst            0                       # Table walker requests started/completed, data/inst
testsys.cpu.dstage2_mmu.stage2_tlb.walker.walkRequestOrigin_Requested::total            0                       # Table walker requests started/completed, data/inst
testsys.cpu.dstage2_mmu.stage2_tlb.walker.walkRequestOrigin_Completed::Data            0                       # Table walker requests started/completed, data/inst
testsys.cpu.dstage2_mmu.stage2_tlb.walker.walkRequestOrigin_Completed::Inst            0                       # Table walker requests started/completed, data/inst
testsys.cpu.dstage2_mmu.stage2_tlb.walker.walkRequestOrigin_Completed::total            0                       # Table walker requests started/completed, data/inst
testsys.cpu.dstage2_mmu.stage2_tlb.walker.walkRequestOrigin::total            0                       # Table walker requests started/completed, data/inst
testsys.cpu.dstage2_mmu.stage2_tlb.inst_hits            0                       # ITB inst hits
testsys.cpu.dstage2_mmu.stage2_tlb.inst_misses            0                       # ITB inst misses
testsys.cpu.dstage2_mmu.stage2_tlb.read_hits            0                       # DTB read hits
testsys.cpu.dstage2_mmu.stage2_tlb.read_misses            0                       # DTB read misses
testsys.cpu.dstage2_mmu.stage2_tlb.write_hits            0                       # DTB write hits
testsys.cpu.dstage2_mmu.stage2_tlb.write_misses            0                       # DTB write misses
testsys.cpu.dstage2_mmu.stage2_tlb.flush_tlb            0                       # Number of times complete TLB was flushed
testsys.cpu.dstage2_mmu.stage2_tlb.flush_tlb_mva            0                       # Number of times TLB was flushed by MVA
testsys.cpu.dstage2_mmu.stage2_tlb.flush_tlb_mva_asid            0                       # Number of times TLB was flushed by MVA & ASID
testsys.cpu.dstage2_mmu.stage2_tlb.flush_tlb_asid            0                       # Number of times TLB was flushed by ASID
testsys.cpu.dstage2_mmu.stage2_tlb.flush_entries            0                       # Number of entries that have been flushed from TLB
testsys.cpu.dstage2_mmu.stage2_tlb.align_faults            0                       # Number of TLB faults due to alignment restrictions
testsys.cpu.dstage2_mmu.stage2_tlb.prefetch_faults            0                       # Number of TLB faults due to prefetch
testsys.cpu.dstage2_mmu.stage2_tlb.domain_faults            0                       # Number of TLB faults due to domain restrictions
testsys.cpu.dstage2_mmu.stage2_tlb.perms_faults            0                       # Number of TLB faults due to permissions restrictions
testsys.cpu.dstage2_mmu.stage2_tlb.read_accesses            0                       # DTB read accesses
testsys.cpu.dstage2_mmu.stage2_tlb.write_accesses            0                       # DTB write accesses
testsys.cpu.dstage2_mmu.stage2_tlb.inst_accesses            0                       # ITB inst accesses
testsys.cpu.dstage2_mmu.stage2_tlb.hits             0                       # DTB hits
testsys.cpu.dstage2_mmu.stage2_tlb.misses            0                       # DTB misses
testsys.cpu.dstage2_mmu.stage2_tlb.accesses            0                       # DTB accesses
testsys.cpu.dtb.walker.pwrStateResidencyTicks::UNDEFINED 8415643391500                       # Cumulative time (in ticks) in various power states
testsys.cpu.dtb.walker.walks                     3186                       # Table walker walks requested
testsys.cpu.dtb.walker.walksShort                3186                       # Table walker walks initiated with short descriptors
testsys.cpu.dtb.walker.walkWaitTime::samples         3186                       # Table walker wait (enqueue to first request) latency
testsys.cpu.dtb.walker.walkWaitTime::0           3186    100.00%    100.00% # Table walker wait (enqueue to first request) latency
testsys.cpu.dtb.walker.walkWaitTime::total         3186                       # Table walker wait (enqueue to first request) latency
testsys.cpu.dtb.walker.walkPageSizes::4K         2241     83.93%     83.93% # Table walker page sizes translated
testsys.cpu.dtb.walker.walkPageSizes::1M          429     16.07%    100.00% # Table walker page sizes translated
testsys.cpu.dtb.walker.walkPageSizes::total         2670                       # Table walker page sizes translated
testsys.cpu.dtb.walker.walkRequestOrigin_Requested::Data         3186                       # Table walker requests started/completed, data/inst
testsys.cpu.dtb.walker.walkRequestOrigin_Requested::Inst            0                       # Table walker requests started/completed, data/inst
testsys.cpu.dtb.walker.walkRequestOrigin_Requested::total         3186                       # Table walker requests started/completed, data/inst
testsys.cpu.dtb.walker.walkRequestOrigin_Completed::Data         2670                       # Table walker requests started/completed, data/inst
testsys.cpu.dtb.walker.walkRequestOrigin_Completed::Inst            0                       # Table walker requests started/completed, data/inst
testsys.cpu.dtb.walker.walkRequestOrigin_Completed::total         2670                       # Table walker requests started/completed, data/inst
testsys.cpu.dtb.walker.walkRequestOrigin::total         5856                       # Table walker requests started/completed, data/inst
testsys.cpu.dtb.inst_hits                           0                       # ITB inst hits
testsys.cpu.dtb.inst_misses                         0                       # ITB inst misses
testsys.cpu.dtb.read_hits                     9754360                       # DTB read hits
testsys.cpu.dtb.read_misses                      2827                       # DTB read misses
testsys.cpu.dtb.write_hits                    5358024                       # DTB write hits
testsys.cpu.dtb.write_misses                      359                       # DTB write misses
testsys.cpu.dtb.flush_tlb                          12                       # Number of times complete TLB was flushed
testsys.cpu.dtb.flush_tlb_mva                     175                       # Number of times TLB was flushed by MVA
testsys.cpu.dtb.flush_tlb_mva_asid                  0                       # Number of times TLB was flushed by MVA & ASID
testsys.cpu.dtb.flush_tlb_asid                      0                       # Number of times TLB was flushed by ASID
testsys.cpu.dtb.flush_entries                     881                       # Number of entries that have been flushed from TLB
testsys.cpu.dtb.align_faults                        0                       # Number of TLB faults due to alignment restrictions
testsys.cpu.dtb.prefetch_faults                   136                       # Number of TLB faults due to prefetch
testsys.cpu.dtb.domain_faults                       0                       # Number of TLB faults due to domain restrictions
testsys.cpu.dtb.perms_faults                       86                       # Number of TLB faults due to permissions restrictions
testsys.cpu.dtb.read_accesses                 9757187                       # DTB read accesses
testsys.cpu.dtb.write_accesses                5358383                       # DTB write accesses
testsys.cpu.dtb.inst_accesses                       0                       # ITB inst accesses
testsys.cpu.dtb.hits                         15112384                       # DTB hits
testsys.cpu.dtb.misses                           3186                       # DTB misses
testsys.cpu.dtb.accesses                     15115570                       # DTB accesses
testsys.cpu.istage2_mmu.stage2_tlb.walker.pwrStateResidencyTicks::UNDEFINED 8415643391500                       # Cumulative time (in ticks) in various power states
testsys.cpu.istage2_mmu.stage2_tlb.walker.walks            0                       # Table walker walks requested
testsys.cpu.istage2_mmu.stage2_tlb.walker.walkRequestOrigin_Requested::Data            0                       # Table walker requests started/completed, data/inst
testsys.cpu.istage2_mmu.stage2_tlb.walker.walkRequestOrigin_Requested::Inst            0                       # Table walker requests started/completed, data/inst
testsys.cpu.istage2_mmu.stage2_tlb.walker.walkRequestOrigin_Requested::total            0                       # Table walker requests started/completed, data/inst
testsys.cpu.istage2_mmu.stage2_tlb.walker.walkRequestOrigin_Completed::Data            0                       # Table walker requests started/completed, data/inst
testsys.cpu.istage2_mmu.stage2_tlb.walker.walkRequestOrigin_Completed::Inst            0                       # Table walker requests started/completed, data/inst
testsys.cpu.istage2_mmu.stage2_tlb.walker.walkRequestOrigin_Completed::total            0                       # Table walker requests started/completed, data/inst
testsys.cpu.istage2_mmu.stage2_tlb.walker.walkRequestOrigin::total            0                       # Table walker requests started/completed, data/inst
testsys.cpu.istage2_mmu.stage2_tlb.inst_hits            0                       # ITB inst hits
testsys.cpu.istage2_mmu.stage2_tlb.inst_misses            0                       # ITB inst misses
testsys.cpu.istage2_mmu.stage2_tlb.read_hits            0                       # DTB read hits
testsys.cpu.istage2_mmu.stage2_tlb.read_misses            0                       # DTB read misses
testsys.cpu.istage2_mmu.stage2_tlb.write_hits            0                       # DTB write hits
testsys.cpu.istage2_mmu.stage2_tlb.write_misses            0                       # DTB write misses
testsys.cpu.istage2_mmu.stage2_tlb.flush_tlb            0                       # Number of times complete TLB was flushed
testsys.cpu.istage2_mmu.stage2_tlb.flush_tlb_mva            0                       # Number of times TLB was flushed by MVA
testsys.cpu.istage2_mmu.stage2_tlb.flush_tlb_mva_asid            0                       # Number of times TLB was flushed by MVA & ASID
testsys.cpu.istage2_mmu.stage2_tlb.flush_tlb_asid            0                       # Number of times TLB was flushed by ASID
testsys.cpu.istage2_mmu.stage2_tlb.flush_entries            0                       # Number of entries that have been flushed from TLB
testsys.cpu.istage2_mmu.stage2_tlb.align_faults            0                       # Number of TLB faults due to alignment restrictions
testsys.cpu.istage2_mmu.stage2_tlb.prefetch_faults            0                       # Number of TLB faults due to prefetch
testsys.cpu.istage2_mmu.stage2_tlb.domain_faults            0                       # Number of TLB faults due to domain restrictions
testsys.cpu.istage2_mmu.stage2_tlb.perms_faults            0                       # Number of TLB faults due to permissions restrictions
testsys.cpu.istage2_mmu.stage2_tlb.read_accesses            0                       # DTB read accesses
testsys.cpu.istage2_mmu.stage2_tlb.write_accesses            0                       # DTB write accesses
testsys.cpu.istage2_mmu.stage2_tlb.inst_accesses            0                       # ITB inst accesses
testsys.cpu.istage2_mmu.stage2_tlb.hits             0                       # DTB hits
testsys.cpu.istage2_mmu.stage2_tlb.misses            0                       # DTB misses
testsys.cpu.istage2_mmu.stage2_tlb.accesses            0                       # DTB accesses
testsys.cpu.itb.walker.pwrStateResidencyTicks::UNDEFINED 8415643391500                       # Cumulative time (in ticks) in various power states
testsys.cpu.itb.walker.walks                     1414                       # Table walker walks requested
testsys.cpu.itb.walker.walksShort                1414                       # Table walker walks initiated with short descriptors
testsys.cpu.itb.walker.walkWaitTime::samples         1414                       # Table walker wait (enqueue to first request) latency
testsys.cpu.itb.walker.walkWaitTime::0           1414    100.00%    100.00% # Table walker wait (enqueue to first request) latency
testsys.cpu.itb.walker.walkWaitTime::total         1414                       # Table walker wait (enqueue to first request) latency
testsys.cpu.itb.walker.walkPageSizes::4K          850     92.69%     92.69% # Table walker page sizes translated
testsys.cpu.itb.walker.walkPageSizes::1M           67      7.31%    100.00% # Table walker page sizes translated
testsys.cpu.itb.walker.walkPageSizes::total          917                       # Table walker page sizes translated
testsys.cpu.itb.walker.walkRequestOrigin_Requested::Data            0                       # Table walker requests started/completed, data/inst
testsys.cpu.itb.walker.walkRequestOrigin_Requested::Inst         1414                       # Table walker requests started/completed, data/inst
testsys.cpu.itb.walker.walkRequestOrigin_Requested::total         1414                       # Table walker requests started/completed, data/inst
testsys.cpu.itb.walker.walkRequestOrigin_Completed::Data            0                       # Table walker requests started/completed, data/inst
testsys.cpu.itb.walker.walkRequestOrigin_Completed::Inst          917                       # Table walker requests started/completed, data/inst
testsys.cpu.itb.walker.walkRequestOrigin_Completed::total          917                       # Table walker requests started/completed, data/inst
testsys.cpu.itb.walker.walkRequestOrigin::total         2331                       # Table walker requests started/completed, data/inst
testsys.cpu.itb.inst_hits                    43583421                       # ITB inst hits
testsys.cpu.itb.inst_misses                      1414                       # ITB inst misses
testsys.cpu.itb.read_hits                           0                       # DTB read hits
testsys.cpu.itb.read_misses                         0                       # DTB read misses
testsys.cpu.itb.write_hits                          0                       # DTB write hits
testsys.cpu.itb.write_misses                        0                       # DTB write misses
testsys.cpu.itb.flush_tlb                          12                       # Number of times complete TLB was flushed
testsys.cpu.itb.flush_tlb_mva                     175                       # Number of times TLB was flushed by MVA
testsys.cpu.itb.flush_tlb_mva_asid                  0                       # Number of times TLB was flushed by MVA & ASID
testsys.cpu.itb.flush_tlb_asid                      0                       # Number of times TLB was flushed by ASID
testsys.cpu.itb.flush_entries                     673                       # Number of entries that have been flushed from TLB
testsys.cpu.itb.align_faults                        0                       # Number of TLB faults due to alignment restrictions
testsys.cpu.itb.prefetch_faults                     0                       # Number of TLB faults due to prefetch
testsys.cpu.itb.domain_faults                       0                       # Number of TLB faults due to domain restrictions
testsys.cpu.itb.perms_faults                        0                       # Number of TLB faults due to permissions restrictions
testsys.cpu.itb.read_accesses                       0                       # DTB read accesses
testsys.cpu.itb.write_accesses                      0                       # DTB write accesses
testsys.cpu.itb.inst_accesses                43584835                       # ITB inst accesses
testsys.cpu.itb.hits                         43583421                       # DTB hits
testsys.cpu.itb.misses                           1414                       # DTB misses
testsys.cpu.itb.accesses                     43584835                       # DTB accesses
testsys.cpu.numPwrStateTransitions                378                       # Number of power state transitions
testsys.cpu.pwrStateClkGateDist::samples          189                       # Distribution of time spent in the clock gated state
testsys.cpu.pwrStateClkGateDist::mean    29626093129.031746                       # Distribution of time spent in the clock gated state
testsys.cpu.pwrStateClkGateDist::stdev   117948946416.118164                       # Distribution of time spent in the clock gated state
testsys.cpu.pwrStateClkGateDist::underflows          124     65.61%     65.61% # Distribution of time spent in the clock gated state
testsys.cpu.pwrStateClkGateDist::1000-5e+10           47     24.87%     90.48% # Distribution of time spent in the clock gated state
testsys.cpu.pwrStateClkGateDist::5e+10-1e+11            6      3.17%     93.65% # Distribution of time spent in the clock gated state
testsys.cpu.pwrStateClkGateDist::2e+11-2.5e+11            5      2.65%     96.30% # Distribution of time spent in the clock gated state
testsys.cpu.pwrStateClkGateDist::2.5e+11-3e+11            3      1.59%     97.88% # Distribution of time spent in the clock gated state
testsys.cpu.pwrStateClkGateDist::3.5e+11-4e+11            1      0.53%     98.41% # Distribution of time spent in the clock gated state
testsys.cpu.pwrStateClkGateDist::7e+11-7.5e+11            1      0.53%     98.94% # Distribution of time spent in the clock gated state
testsys.cpu.pwrStateClkGateDist::7.5e+11-8e+11            1      0.53%     99.47% # Distribution of time spent in the clock gated state
testsys.cpu.pwrStateClkGateDist::9.5e+11-1e+12            1      0.53%    100.00% # Distribution of time spent in the clock gated state
testsys.cpu.pwrStateClkGateDist::min_value          501                       # Distribution of time spent in the clock gated state
testsys.cpu.pwrStateClkGateDist::max_value 999980648668                       # Distribution of time spent in the clock gated state
testsys.cpu.pwrStateClkGateDist::total            189                       # Distribution of time spent in the clock gated state
testsys.cpu.pwrStateResidencyTicks::ON    26777480112                       # Cumulative time (in ticks) in various power states
testsys.cpu.pwrStateResidencyTicks::CLK_GATED 5599331601387                       # Cumulative time (in ticks) in various power states
testsys.cpu.numCycles                     11251765860                       # number of cpu cycles simulated
testsys.cpu.numWorkItemsStarted                     0                       # number of work items this cpu started
testsys.cpu.numWorkItemsCompleted                   0                       # number of work items this cpu completed
testsys.cpu.kern.inst.arm                           0                       # number of arm instructions executed
testsys.cpu.kern.inst.quiesce                     189                       # number of quiesce instructions executed
testsys.cpu.committedInsts                   41257863                       # Number of instructions committed
testsys.cpu.committedOps                     50775540                       # Number of ops (including micro ops) committed
testsys.cpu.num_int_alu_accesses             45671105                       # Number of integer alu accesses
testsys.cpu.num_fp_alu_accesses                  2243                       # Number of float alu accesses
testsys.cpu.num_vec_alu_accesses                    0                       # Number of vector alu accesses
testsys.cpu.num_func_calls                    8423264                       # number of times a function call or return occured
testsys.cpu.num_conditional_control_insts      4920833                       # number of instructions that are conditional controls
testsys.cpu.num_int_insts                    45671105                       # number of integer instructions
testsys.cpu.num_fp_insts                         2243                       # number of float instructions
testsys.cpu.num_vec_insts                           0                       # number of vector instructions
testsys.cpu.num_int_register_reads           89877311                       # number of times the integer registers were read
testsys.cpu.num_int_register_writes          33311910                       # number of times the integer registers were written
testsys.cpu.num_fp_register_reads                1619                       # number of times the floating registers were read
testsys.cpu.num_fp_register_writes                632                       # number of times the floating registers were written
testsys.cpu.num_vec_register_reads                  0                       # number of times the vector registers were read
testsys.cpu.num_vec_register_writes                 0                       # number of times the vector registers were written
testsys.cpu.num_cc_register_reads           158165335                       # number of times the CC registers were read
testsys.cpu.num_cc_register_writes           15410198                       # number of times the CC registers were written
testsys.cpu.num_mem_refs                     15180461                       # number of memory refs
testsys.cpu.num_load_insts                    9779334                       # Number of load instructions
testsys.cpu.num_store_insts                   5401127                       # Number of store instructions
testsys.cpu.num_idle_cycles              11198663390.880028                       # Number of idle cycles
testsys.cpu.num_busy_cycles              53102469.119972                       # Number of busy cycles
testsys.cpu.not_idle_fraction                0.004719                       # Percentage of non-idle cycles
testsys.cpu.idle_fraction                    0.995281                       # Percentage of idle cycles
testsys.cpu.Branches                         13416210                       # Number of branches fetched
testsys.cpu.op_class::No_OpClass                   55      0.00%      0.00% # Class of executed instruction
testsys.cpu.op_class::IntAlu                 37622112     71.22%     71.22% # Class of executed instruction
testsys.cpu.op_class::IntMult                   18994      0.04%     71.26% # Class of executed instruction
testsys.cpu.op_class::IntDiv                        0      0.00%     71.26% # Class of executed instruction
testsys.cpu.op_class::FloatAdd                      0      0.00%     71.26% # Class of executed instruction
testsys.cpu.op_class::FloatCmp                      0      0.00%     71.26% # Class of executed instruction
testsys.cpu.op_class::FloatCvt                      0      0.00%     71.26% # Class of executed instruction
testsys.cpu.op_class::FloatMult                     0      0.00%     71.26% # Class of executed instruction
testsys.cpu.op_class::FloatMultAcc                  0      0.00%     71.26% # Class of executed instruction
testsys.cpu.op_class::FloatDiv                      0      0.00%     71.26% # Class of executed instruction
testsys.cpu.op_class::FloatMisc                     0      0.00%     71.26% # Class of executed instruction
testsys.cpu.op_class::FloatSqrt                     0      0.00%     71.26% # Class of executed instruction
testsys.cpu.op_class::SimdAdd                       0      0.00%     71.26% # Class of executed instruction
testsys.cpu.op_class::SimdAddAcc                    0      0.00%     71.26% # Class of executed instruction
testsys.cpu.op_class::SimdAlu                       0      0.00%     71.26% # Class of executed instruction
testsys.cpu.op_class::SimdCmp                       0      0.00%     71.26% # Class of executed instruction
testsys.cpu.op_class::SimdCvt                       0      0.00%     71.26% # Class of executed instruction
testsys.cpu.op_class::SimdMisc                      0      0.00%     71.26% # Class of executed instruction
testsys.cpu.op_class::SimdMult                      0      0.00%     71.26% # Class of executed instruction
testsys.cpu.op_class::SimdMultAcc                   0      0.00%     71.26% # Class of executed instruction
testsys.cpu.op_class::SimdShift                     0      0.00%     71.26% # Class of executed instruction
testsys.cpu.op_class::SimdShiftAcc                  0      0.00%     71.26% # Class of executed instruction
testsys.cpu.op_class::SimdSqrt                      0      0.00%     71.26% # Class of executed instruction
testsys.cpu.op_class::SimdFloatAdd                  0      0.00%     71.26% # Class of executed instruction
testsys.cpu.op_class::SimdFloatAlu                  0      0.00%     71.26% # Class of executed instruction
testsys.cpu.op_class::SimdFloatCmp                  0      0.00%     71.26% # Class of executed instruction
testsys.cpu.op_class::SimdFloatCvt                  0      0.00%     71.26% # Class of executed instruction
testsys.cpu.op_class::SimdFloatDiv                  0      0.00%     71.26% # Class of executed instruction
testsys.cpu.op_class::SimdFloatMisc               561      0.00%     71.26% # Class of executed instruction
testsys.cpu.op_class::SimdFloatMult                 0      0.00%     71.26% # Class of executed instruction
testsys.cpu.op_class::SimdFloatMultAcc              0      0.00%     71.26% # Class of executed instruction
testsys.cpu.op_class::SimdFloatSqrt                 0      0.00%     71.26% # Class of executed instruction
testsys.cpu.op_class::MemRead                 9778706     18.51%     89.77% # Class of executed instruction
testsys.cpu.op_class::MemWrite                5399516     10.22%    100.00% # Class of executed instruction
testsys.cpu.op_class::FloatMemRead                628      0.00%    100.00% # Class of executed instruction
testsys.cpu.op_class::FloatMemWrite              1611      0.00%    100.00% # Class of executed instruction
testsys.cpu.op_class::IprAccess                     0      0.00%    100.00% # Class of executed instruction
testsys.cpu.op_class::InstPrefetch                  0      0.00%    100.00% # Class of executed instruction
testsys.cpu.op_class::total                  52822183                       # Class of executed instruction
testsys.iobridge.pwrStateResidencyTicks::UNDEFINED 8415643391500                       # Cumulative time (in ticks) in various power states
testsys.iobus.pwrStateResidencyTicks::UNDEFINED 8415643391500                       # Cumulative time (in ticks) in various power states
testsys.iobus.trans_dist::ReadReq                2839                       # Transaction distribution
testsys.iobus.trans_dist::ReadResp               2839                       # Transaction distribution
testsys.iobus.trans_dist::WriteReq               3828                       # Transaction distribution
testsys.iobus.trans_dist::WriteResp              3828                       # Transaction distribution
testsys.iobus.pkt_count_testsys.bridge.master::testsys.realview.uart.pio         9294                       # Packet count per connected master and slave (bytes)
testsys.iobus.pkt_count_testsys.bridge.master::testsys.realview.ide.pio         1664                       # Packet count per connected master and slave (bytes)
testsys.iobus.pkt_count_testsys.bridge.master::testsys.realview.ethernet.pio         1108                       # Packet count per connected master and slave (bytes)
testsys.iobus.pkt_count_testsys.bridge.master::total        12066                       # Packet count per connected master and slave (bytes)
testsys.iobus.pkt_count_testsys.realview.ide.dma::testsys.iobridge.slave         1184                       # Packet count per connected master and slave (bytes)
testsys.iobus.pkt_count_testsys.realview.ide.dma::total         1184                       # Packet count per connected master and slave (bytes)
testsys.iobus.pkt_count_testsys.realview.ethernet.dma::testsys.iobridge.slave           84                       # Packet count per connected master and slave (bytes)
testsys.iobus.pkt_count_testsys.realview.ethernet.dma::total           84                       # Packet count per connected master and slave (bytes)
testsys.iobus.pkt_count::total                  13334                       # Packet count per connected master and slave (bytes)
testsys.iobus.pkt_size_testsys.bridge.master::testsys.realview.uart.pio         9294                       # Cumulative packet size per connected master and slave (bytes)
testsys.iobus.pkt_size_testsys.bridge.master::testsys.realview.ide.pio          928                       # Cumulative packet size per connected master and slave (bytes)
testsys.iobus.pkt_size_testsys.bridge.master::testsys.realview.ethernet.pio         2216                       # Cumulative packet size per connected master and slave (bytes)
testsys.iobus.pkt_size_testsys.bridge.master::total        12438                       # Cumulative packet size per connected master and slave (bytes)
testsys.iobus.pkt_size_testsys.realview.ide.dma::testsys.iobridge.slave        36096                       # Cumulative packet size per connected master and slave (bytes)
testsys.iobus.pkt_size_testsys.realview.ide.dma::total        36096                       # Cumulative packet size per connected master and slave (bytes)
testsys.iobus.pkt_size_testsys.realview.ethernet.dma::testsys.iobridge.slave         1246                       # Cumulative packet size per connected master and slave (bytes)
testsys.iobus.pkt_size_testsys.realview.ethernet.dma::total         1246                       # Cumulative packet size per connected master and slave (bytes)
testsys.iobus.pkt_size::total                   49780                       # Cumulative packet size per connected master and slave (bytes)
testsys.membus.snoop_filter.tot_requests            0                       # Total number of requests made to the snoop filter.
testsys.membus.snoop_filter.hit_single_requests            0                       # Number of requests hitting in the snoop filter with a single holder of the requested data.
testsys.membus.snoop_filter.hit_multi_requests            0                       # Number of requests hitting in the snoop filter with multiple (>1) holders of the requested data.
testsys.membus.snoop_filter.tot_snoops              0                       # Total number of snoops made to the snoop filter.
testsys.membus.snoop_filter.hit_single_snoops            0                       # Number of snoops hitting in the snoop filter with a single holder of the requested data.
testsys.membus.snoop_filter.hit_multi_snoops            0                       # Number of snoops hitting in the snoop filter with multiple (>1) holders of the requested data.
testsys.membus.pwrStateResidencyTicks::UNDEFINED 8415643391500                       # Cumulative time (in ticks) in various power states
testsys.membus.trans_dist::ReadReq           53288192                       # Transaction distribution
testsys.membus.trans_dist::ReadResp          53319738                       # Transaction distribution
testsys.membus.trans_dist::WriteReq           5327147                       # Transaction distribution
testsys.membus.trans_dist::WriteResp          5327147                       # Transaction distribution
testsys.membus.trans_dist::SoftPFReq            30538                       # Transaction distribution
testsys.membus.trans_dist::SoftPFResp           30538                       # Transaction distribution
testsys.membus.trans_dist::LoadLockedReq        31546                       # Transaction distribution
testsys.membus.trans_dist::StoreCondReq         31209                       # Transaction distribution
testsys.membus.trans_dist::StoreCondResp        31209                       # Transaction distribution
testsys.membus.pkt_count_testsys.iobridge.master::testsys.mem_ctrls.port         1268                       # Packet count per connected master and slave (bytes)
testsys.membus.pkt_count_testsys.iobridge.master::total         1268                       # Packet count per connected master and slave (bytes)
testsys.membus.pkt_count_testsys.cpu.icache_port::testsys.mem_ctrls.port     87168676                       # Packet count per connected master and slave (bytes)
testsys.membus.pkt_count_testsys.cpu.icache_port::total     87168676                       # Packet count per connected master and slave (bytes)
testsys.membus.pkt_count_testsys.cpu.dcache_port::testsys.bridge.slave        12066                       # Packet count per connected master and slave (bytes)
testsys.membus.pkt_count_testsys.cpu.dcache_port::testsys.realview.gic.pio         1318                       # Packet count per connected master and slave (bytes)
testsys.membus.pkt_count_testsys.cpu.dcache_port::testsys.mem_ctrls.port     30216552                       # Packet count per connected master and slave (bytes)
testsys.membus.pkt_count_testsys.cpu.dcache_port::total     30229936                       # Packet count per connected master and slave (bytes)
testsys.membus.pkt_count_testsys.cpu.itb.walker.dma::testsys.mem_ctrls.port         5522                       # Packet count per connected master and slave (bytes)
testsys.membus.pkt_count_testsys.cpu.itb.walker.dma::total         5522                       # Packet count per connected master and slave (bytes)
testsys.membus.pkt_count_testsys.cpu.dtb.walker.dma::testsys.mem_ctrls.port        11862                       # Packet count per connected master and slave (bytes)
testsys.membus.pkt_count_testsys.cpu.dtb.walker.dma::total        11862                       # Packet count per connected master and slave (bytes)
testsys.membus.pkt_count::total             117417264                       # Packet count per connected master and slave (bytes)
testsys.membus.pkt_size_testsys.iobridge.master::testsys.mem_ctrls.port        37342                       # Cumulative packet size per connected master and slave (bytes)
testsys.membus.pkt_size_testsys.iobridge.master::total        37342                       # Cumulative packet size per connected master and slave (bytes)
testsys.membus.pkt_size_testsys.cpu.icache_port::testsys.mem_ctrls.port    174337352                       # Cumulative packet size per connected master and slave (bytes)
testsys.membus.pkt_size_testsys.cpu.icache_port::total    174337352                       # Cumulative packet size per connected master and slave (bytes)
testsys.membus.pkt_size_testsys.cpu.dcache_port::testsys.bridge.slave        12438                       # Cumulative packet size per connected master and slave (bytes)
testsys.membus.pkt_size_testsys.cpu.dcache_port::testsys.realview.gic.pio         2636                       # Cumulative packet size per connected master and slave (bytes)
testsys.membus.pkt_size_testsys.cpu.dcache_port::testsys.mem_ctrls.port     69261253                       # Cumulative packet size per connected master and slave (bytes)
testsys.membus.pkt_size_testsys.cpu.dcache_port::total     69276327                       # Cumulative packet size per connected master and slave (bytes)
testsys.membus.pkt_size_testsys.cpu.itb.walker.dma::testsys.mem_ctrls.port        11044                       # Cumulative packet size per connected master and slave (bytes)
testsys.membus.pkt_size_testsys.cpu.itb.walker.dma::total        11044                       # Cumulative packet size per connected master and slave (bytes)
testsys.membus.pkt_size_testsys.cpu.dtb.walker.dma::testsys.mem_ctrls.port        23724                       # Cumulative packet size per connected master and slave (bytes)
testsys.membus.pkt_size_testsys.cpu.dtb.walker.dma::total        23724                       # Cumulative packet size per connected master and slave (bytes)
testsys.membus.pkt_size::total              243685789                       # Cumulative packet size per connected master and slave (bytes)
testsys.membus.snoops                               0                       # Total snoops (count)
testsys.membus.snoopTraffic                         0                       # Total snoop traffic (bytes)
testsys.membus.snoop_fanout::samples         58708632                       # Request fanout histogram
testsys.membus.snoop_fanout::mean                   0                       # Request fanout histogram
testsys.membus.snoop_fanout::stdev                  0                       # Request fanout histogram
testsys.membus.snoop_fanout::underflows             0      0.00%      0.00% # Request fanout histogram
testsys.membus.snoop_fanout::0               58708632    100.00%    100.00% # Request fanout histogram
testsys.membus.snoop_fanout::1                      0      0.00%    100.00% # Request fanout histogram
testsys.membus.snoop_fanout::overflows              0      0.00%    100.00% # Request fanout histogram
testsys.membus.snoop_fanout::min_value              0                       # Request fanout histogram
testsys.membus.snoop_fanout::max_value              0                       # Request fanout histogram
testsys.membus.snoop_fanout::total           58708632                       # Request fanout histogram
testsys.membus.badaddr_responder.pwrStateResidencyTicks::UNDEFINED 8415643391500                       # Cumulative time (in ticks) in various power states
testsys.realview.aaci_fake.pwrStateResidencyTicks::UNDEFINED 8415643391500                       # Cumulative time (in ticks) in various power states
testsys.realview.pci_host.pwrStateResidencyTicks::UNDEFINED 8415643391500                       # Cumulative time (in ticks) in various power states
testsys.realview.cf_ctrl.pwrStateResidencyTicks::UNDEFINED 8415643391500                       # Cumulative time (in ticks) in various power states
testsys.realview.gic.pwrStateResidencyTicks::UNDEFINED 8415643391500                       # Cumulative time (in ticks) in various power states
testsys.realview.clcd.pwrStateResidencyTicks::UNDEFINED 8415643391500                       # Cumulative time (in ticks) in various power states
testsys.realview.realview_io.pwrStateResidencyTicks::UNDEFINED 8415643391500                       # Cumulative time (in ticks) in various power states
testsys.realview.dcc.osc_cpu.clock              16667                       # Clock period in ticks
testsys.realview.dcc.osc_ddr.clock              25000                       # Clock period in ticks
testsys.realview.dcc.osc_hsbm.clock             25000                       # Clock period in ticks
testsys.realview.dcc.osc_pxl.clock              42105                       # Clock period in ticks
testsys.realview.dcc.osc_smb.clock              20000                       # Clock period in ticks
testsys.realview.dcc.osc_sys.clock              16667                       # Clock period in ticks
testsys.realview.energy_ctrl.pwrStateResidencyTicks::UNDEFINED 8415643391500                       # Cumulative time (in ticks) in various power states
testsys.realview.ethernet.pwrStateResidencyTicks::UNDEFINED 8415643391500                       # Cumulative time (in ticks) in various power states
testsys.realview.ethernet.txBytes                 736                       # Bytes Transmitted
testsys.realview.ethernet.rxBytes                 158                       # Bytes Received
testsys.realview.ethernet.txPackets                 9                       # Number of Packets Transmitted
testsys.realview.ethernet.rxPackets                 2                       # Number of Packets Received
testsys.realview.ethernet.txIpChecksums             0                       # Number of tx IP Checksums done by device
testsys.realview.ethernet.rxIpChecksums             0                       # Number of rx IP Checksums done by device
testsys.realview.ethernet.txTcpChecksums            0                       # Number of tx TCP Checksums done by device
testsys.realview.ethernet.rxTcpChecksums            0                       # Number of rx TCP Checksums done by device
testsys.realview.ethernet.txUdpChecksums            0                       # Number of tx UDP Checksums done by device
testsys.realview.ethernet.rxUdpChecksums            0                       # Number of rx UDP Checksums done by device
testsys.realview.ethernet.descDMAReads              0                       # Number of descriptors the device read w/ DMA
testsys.realview.ethernet.descDMAWrites             0                       # Number of descriptors the device wrote w/ DMA
testsys.realview.ethernet.descDmaReadBytes            0                       # number of descriptor bytes read w/ DMA
testsys.realview.ethernet.descDmaWriteBytes            0                       # number of descriptor bytes write w/ DMA
testsys.realview.ethernet.totBandwidth           1271                       # Total Bandwidth (bits/s)
testsys.realview.ethernet.totPackets               11                       # Total Packets
testsys.realview.ethernet.totBytes                894                       # Total Bytes
testsys.realview.ethernet.totPPS                    2                       # Total Tranmission Rate (packets/s)
testsys.realview.ethernet.txBandwidth            1047                       # Transmit Bandwidth (bits/s)
testsys.realview.ethernet.rxBandwidth             225                       # Receive Bandwidth (bits/s)
testsys.realview.ethernet.txPPS                     2                       # Packet Tranmission Rate (packets/s)
testsys.realview.ethernet.rxPPS                     0                       # Packet Reception Rate (packets/s)
testsys.realview.ethernet.postedSwi                 0                       # number of software interrupts posted to CPU
testsys.realview.ethernet.coalescedSwi              0                       # average number of Swi's coalesced into each post
testsys.realview.ethernet.totalSwi                  0                       # total number of Swi written to ISR
testsys.realview.ethernet.postedRxIdle              0                       # number of rxIdle interrupts posted to CPU
testsys.realview.ethernet.coalescedRxIdle            0                       # average number of RxIdle's coalesced into each post
testsys.realview.ethernet.totalRxIdle               0                       # total number of RxIdle written to ISR
testsys.realview.ethernet.postedRxOk                0                       # number of RxOk interrupts posted to CPU
testsys.realview.ethernet.coalescedRxOk             0                       # average number of RxOk's coalesced into each post
testsys.realview.ethernet.totalRxOk                 0                       # total number of RxOk written to ISR
testsys.realview.ethernet.postedRxDesc              0                       # number of RxDesc interrupts posted to CPU
testsys.realview.ethernet.coalescedRxDesc            0                       # average number of RxDesc's coalesced into each post
testsys.realview.ethernet.totalRxDesc               0                       # total number of RxDesc written to ISR
testsys.realview.ethernet.postedTxOk                0                       # number of TxOk interrupts posted to CPU
testsys.realview.ethernet.coalescedTxOk             0                       # average number of TxOk's coalesced into each post
testsys.realview.ethernet.totalTxOk                 0                       # total number of TxOk written to ISR
testsys.realview.ethernet.postedTxIdle              0                       # number of TxIdle interrupts posted to CPU
testsys.realview.ethernet.coalescedTxIdle            0                       # average number of TxIdle's coalesced into each post
testsys.realview.ethernet.totalTxIdle               0                       # total number of TxIdle written to ISR
testsys.realview.ethernet.postedTxDesc              0                       # number of TxDesc interrupts posted to CPU
testsys.realview.ethernet.coalescedTxDesc            0                       # average number of TxDesc's coalesced into each post
testsys.realview.ethernet.totalTxDesc               0                       # total number of TxDesc written to ISR
testsys.realview.ethernet.postedRxOrn               0                       # number of RxOrn posted to CPU
testsys.realview.ethernet.coalescedRxOrn            0                       # average number of RxOrn's coalesced into each post
testsys.realview.ethernet.totalRxOrn                0                       # total number of RxOrn written to ISR
testsys.realview.ethernet.coalescedTotal            0                       # average number of interrupts coalesced into each post
testsys.realview.ethernet.postedInterrupts           22                       # number of posts to CPU
testsys.realview.ethernet.droppedPackets            0                       # number of packets dropped
testsys.realview.hdlcd.pwrStateResidencyTicks::UNDEFINED 8415643391500                       # Cumulative time (in ticks) in various power states
testsys.realview.ide.pwrStateResidencyTicks::UNDEFINED 8415643391500                       # Cumulative time (in ticks) in various power states
testsys.realview.kmi0.pwrStateResidencyTicks::UNDEFINED 8415643391500                       # Cumulative time (in ticks) in various power states
testsys.realview.kmi1.pwrStateResidencyTicks::UNDEFINED 8415643391500                       # Cumulative time (in ticks) in various power states
testsys.realview.l2x0_fake.pwrStateResidencyTicks::UNDEFINED 8415643391500                       # Cumulative time (in ticks) in various power states
testsys.realview.lan_fake.pwrStateResidencyTicks::UNDEFINED 8415643391500                       # Cumulative time (in ticks) in various power states
testsys.realview.local_cpu_timer.pwrStateResidencyTicks::UNDEFINED 8415643391500                       # Cumulative time (in ticks) in various power states
testsys.realview.mcc.osc_clcd.clock             42105                       # Clock period in ticks
testsys.realview.mcc.osc_mcc.clock              20000                       # Clock period in ticks
testsys.realview.mcc.osc_peripheral.clock        41667                       # Clock period in ticks
testsys.realview.mcc.osc_system_bus.clock        41667                       # Clock period in ticks
testsys.realview.mmc_fake.pwrStateResidencyTicks::UNDEFINED 8415643391500                       # Cumulative time (in ticks) in various power states
testsys.realview.rtc.pwrStateResidencyTicks::UNDEFINED 8415643391500                       # Cumulative time (in ticks) in various power states
testsys.realview.sp810_fake.pwrStateResidencyTicks::UNDEFINED 8415643391500                       # Cumulative time (in ticks) in various power states
testsys.realview.timer0.pwrStateResidencyTicks::UNDEFINED 8415643391500                       # Cumulative time (in ticks) in various power states
testsys.realview.timer1.pwrStateResidencyTicks::UNDEFINED 8415643391500                       # Cumulative time (in ticks) in various power states
testsys.realview.uart.pwrStateResidencyTicks::UNDEFINED 8415643391500                       # Cumulative time (in ticks) in various power states
testsys.realview.uart1_fake.pwrStateResidencyTicks::UNDEFINED 8415643391500                       # Cumulative time (in ticks) in various power states
testsys.realview.uart2_fake.pwrStateResidencyTicks::UNDEFINED 8415643391500                       # Cumulative time (in ticks) in various power states
testsys.realview.uart3_fake.pwrStateResidencyTicks::UNDEFINED 8415643391500                       # Cumulative time (in ticks) in various power states
testsys.realview.usb_fake.pwrStateResidencyTicks::UNDEFINED 8415643391500                       # Cumulative time (in ticks) in various power states
testsys.realview.vgic.pwrStateResidencyTicks::UNDEFINED 8415643391500                       # Cumulative time (in ticks) in various power states
testsys.realview.watchdog_fake.pwrStateResidencyTicks::UNDEFINED 8415643391500                       # Cumulative time (in ticks) in various power states

---------- End Simulation Statistics   ----------
