
---------- Begin Simulation Statistics ----------
sim_seconds                                  0.132712                       # Number of seconds simulated
sim_ticks                                132711663500                       # Number of ticks simulated
final_tick                               2922472299500                       # Number of ticks from beginning of simulation (restored from checkpoints and never reset)
sim_freq                                 1000000000000                       # Frequency of simulated ticks
host_inst_rate                                5278098                       # Simulator instruction rate (inst/s)
host_op_rate                                  6475822                       # Simulator op (including micro ops) rate (op/s)
host_tick_rate                             3588279607                       # Simulator tick rate (ticks/s)
host_mem_usage                                 897004                       # Number of bytes of host memory used
host_seconds                                    36.99                       # Real time elapsed on the host
sim_insts                                   195208658                       # Number of instructions simulated
sim_ops                                     239506514                       # Number of ops (including micro ops) simulated
system.voltage_domain.voltage                       1                       # Voltage in Volts
system.clk_domain.clock                          1000                       # Clock period in ticks
system.mem_ctrls.pwrStateResidencyTicks::UNDEFINED 2922472299500                       # Cumulative time (in ticks) in various power states
system.mem_ctrls.bytes_read::cpu.dtb.walker        17192                       # Number of bytes read from this memory
system.mem_ctrls.bytes_read::cpu.itb.walker         9552                       # Number of bytes read from this memory
system.mem_ctrls.bytes_read::cpu.inst       166582808                       # Number of bytes read from this memory
system.mem_ctrls.bytes_read::cpu.data        46146744                       # Number of bytes read from this memory
system.mem_ctrls.bytes_read::realview.apollondev        92000                       # Number of bytes read from this memory
system.mem_ctrls.bytes_read::realview.ethernet          106                       # Number of bytes read from this memory
system.mem_ctrls.bytes_read::realview.ide           48                       # Number of bytes read from this memory
system.mem_ctrls.bytes_read::total          212848450                       # Number of bytes read from this memory
system.mem_ctrls.bytes_inst_read::cpu.inst    166582808                       # Number of instructions bytes read from this memory
system.mem_ctrls.bytes_inst_read::total     166582808                       # Number of instructions bytes read from this memory
system.mem_ctrls.bytes_written::cpu.data     21020937                       # Number of bytes written to this memory
system.mem_ctrls.bytes_written::realview.apollondev          800                       # Number of bytes written to this memory
system.mem_ctrls.bytes_written::realview.ethernet           16                       # Number of bytes written to this memory
system.mem_ctrls.bytes_written::realview.ide        16384                       # Number of bytes written to this memory
system.mem_ctrls.bytes_written::total        21038137                       # Number of bytes written to this memory
system.mem_ctrls.num_reads::cpu.dtb.walker         4298                       # Number of read requests responded to by this memory
system.mem_ctrls.num_reads::cpu.itb.walker         2388                       # Number of read requests responded to by this memory
system.mem_ctrls.num_reads::cpu.inst         41645702                       # Number of read requests responded to by this memory
system.mem_ctrls.num_reads::cpu.data          9377777                       # Number of read requests responded to by this memory
system.mem_ctrls.num_reads::realview.apollondev         1500                       # Number of read requests responded to by this memory
system.mem_ctrls.num_reads::realview.ethernet            3                       # Number of read requests responded to by this memory
system.mem_ctrls.num_reads::realview.ide            6                       # Number of read requests responded to by this memory
system.mem_ctrls.num_reads::total            51031674                       # Number of read requests responded to by this memory
system.mem_ctrls.num_writes::cpu.data         5250866                       # Number of write requests responded to by this memory
system.mem_ctrls.num_writes::realview.apollondev          100                       # Number of write requests responded to by this memory
system.mem_ctrls.num_writes::realview.ethernet            1                       # Number of write requests responded to by this memory
system.mem_ctrls.num_writes::realview.ide          256                       # Number of write requests responded to by this memory
system.mem_ctrls.num_writes::total            5251223                       # Number of write requests responded to by this memory
system.mem_ctrls.bw_read::cpu.dtb.walker       129544                       # Total read bandwidth from this memory (bytes/s)
system.mem_ctrls.bw_read::cpu.itb.walker        71976                       # Total read bandwidth from this memory (bytes/s)
system.mem_ctrls.bw_read::cpu.inst         1255223570                       # Total read bandwidth from this memory (bytes/s)
system.mem_ctrls.bw_read::cpu.data          347721841                       # Total read bandwidth from this memory (bytes/s)
system.mem_ctrls.bw_read::realview.apollondev       693232                       # Total read bandwidth from this memory (bytes/s)
system.mem_ctrls.bw_read::realview.ethernet          799                       # Total read bandwidth from this memory (bytes/s)
system.mem_ctrls.bw_read::realview.ide            362                       # Total read bandwidth from this memory (bytes/s)
system.mem_ctrls.bw_read::total            1603841323                       # Total read bandwidth from this memory (bytes/s)
system.mem_ctrls.bw_inst_read::cpu.inst    1255223570                       # Instruction read bandwidth from this memory (bytes/s)
system.mem_ctrls.bw_inst_read::total       1255223570                       # Instruction read bandwidth from this memory (bytes/s)
system.mem_ctrls.bw_write::cpu.data         158395551                       # Write bandwidth from this memory (bytes/s)
system.mem_ctrls.bw_write::realview.apollondev         6028                       # Write bandwidth from this memory (bytes/s)
system.mem_ctrls.bw_write::realview.ethernet          121                       # Write bandwidth from this memory (bytes/s)
system.mem_ctrls.bw_write::realview.ide        123456                       # Write bandwidth from this memory (bytes/s)
system.mem_ctrls.bw_write::total            158525155                       # Write bandwidth from this memory (bytes/s)
system.mem_ctrls.bw_total::cpu.dtb.walker       129544                       # Total bandwidth to/from this memory (bytes/s)
system.mem_ctrls.bw_total::cpu.itb.walker        71976                       # Total bandwidth to/from this memory (bytes/s)
system.mem_ctrls.bw_total::cpu.inst        1255223570                       # Total bandwidth to/from this memory (bytes/s)
system.mem_ctrls.bw_total::cpu.data         506117392                       # Total bandwidth to/from this memory (bytes/s)
system.mem_ctrls.bw_total::realview.apollondev       699260                       # Total bandwidth to/from this memory (bytes/s)
system.mem_ctrls.bw_total::realview.ethernet          919                       # Total bandwidth to/from this memory (bytes/s)
system.mem_ctrls.bw_total::realview.ide        123817                       # Total bandwidth to/from this memory (bytes/s)
system.mem_ctrls.bw_total::total           1762366478                       # Total bandwidth to/from this memory (bytes/s)
system.mem_ctrls.readReqs                           0                       # Number of read requests accepted
system.mem_ctrls.writeReqs                          0                       # Number of write requests accepted
system.mem_ctrls.readBursts                         0                       # Number of DRAM read bursts, including those serviced by the write queue
system.mem_ctrls.writeBursts                        0                       # Number of DRAM write bursts, including those merged in the write queue
system.mem_ctrls.bytesReadDRAM                      0                       # Total number of bytes read from DRAM
system.mem_ctrls.bytesReadWrQ                       0                       # Total number of bytes read from write queue
system.mem_ctrls.bytesWritten                       0                       # Total number of bytes written to DRAM
system.mem_ctrls.bytesReadSys                       0                       # Total read bytes from the system interface side
system.mem_ctrls.bytesWrittenSys                    0                       # Total written bytes from the system interface side
system.mem_ctrls.servicedByWrQ                      0                       # Number of DRAM read bursts serviced by the write queue
system.mem_ctrls.mergedWrBursts                     0                       # Number of DRAM write bursts merged with an existing one
system.mem_ctrls.neitherReadNorWriteReqs            0                       # Number of requests that are neither read nor write
system.mem_ctrls.perBankRdBursts::0                 0                       # Per bank write bursts
system.mem_ctrls.perBankRdBursts::1                 0                       # Per bank write bursts
system.mem_ctrls.perBankRdBursts::2                 0                       # Per bank write bursts
system.mem_ctrls.perBankRdBursts::3                 0                       # Per bank write bursts
system.mem_ctrls.perBankRdBursts::4                 0                       # Per bank write bursts
system.mem_ctrls.perBankRdBursts::5                 0                       # Per bank write bursts
system.mem_ctrls.perBankRdBursts::6                 0                       # Per bank write bursts
system.mem_ctrls.perBankRdBursts::7                 0                       # Per bank write bursts
system.mem_ctrls.perBankRdBursts::8                 0                       # Per bank write bursts
system.mem_ctrls.perBankRdBursts::9                 0                       # Per bank write bursts
system.mem_ctrls.perBankRdBursts::10                0                       # Per bank write bursts
system.mem_ctrls.perBankRdBursts::11                0                       # Per bank write bursts
system.mem_ctrls.perBankRdBursts::12                0                       # Per bank write bursts
system.mem_ctrls.perBankRdBursts::13                0                       # Per bank write bursts
system.mem_ctrls.perBankRdBursts::14                0                       # Per bank write bursts
system.mem_ctrls.perBankRdBursts::15                0                       # Per bank write bursts
system.mem_ctrls.perBankWrBursts::0                 0                       # Per bank write bursts
system.mem_ctrls.perBankWrBursts::1                 0                       # Per bank write bursts
system.mem_ctrls.perBankWrBursts::2                 0                       # Per bank write bursts
system.mem_ctrls.perBankWrBursts::3                 0                       # Per bank write bursts
system.mem_ctrls.perBankWrBursts::4                 0                       # Per bank write bursts
system.mem_ctrls.perBankWrBursts::5                 0                       # Per bank write bursts
system.mem_ctrls.perBankWrBursts::6                 0                       # Per bank write bursts
system.mem_ctrls.perBankWrBursts::7                 0                       # Per bank write bursts
system.mem_ctrls.perBankWrBursts::8                 0                       # Per bank write bursts
system.mem_ctrls.perBankWrBursts::9                 0                       # Per bank write bursts
system.mem_ctrls.perBankWrBursts::10                0                       # Per bank write bursts
system.mem_ctrls.perBankWrBursts::11                0                       # Per bank write bursts
system.mem_ctrls.perBankWrBursts::12                0                       # Per bank write bursts
system.mem_ctrls.perBankWrBursts::13                0                       # Per bank write bursts
system.mem_ctrls.perBankWrBursts::14                0                       # Per bank write bursts
system.mem_ctrls.perBankWrBursts::15                0                       # Per bank write bursts
system.mem_ctrls.numRdRetry                         0                       # Number of times read queue was full causing retry
system.mem_ctrls.numWrRetry                         0                       # Number of times write queue was full causing retry
system.mem_ctrls.totGap                             0                       # Total gap between requests
system.mem_ctrls.readPktSize::0                     0                       # Read request sizes (log2)
system.mem_ctrls.readPktSize::1                     0                       # Read request sizes (log2)
system.mem_ctrls.readPktSize::2                     0                       # Read request sizes (log2)
system.mem_ctrls.readPktSize::3                     0                       # Read request sizes (log2)
system.mem_ctrls.readPktSize::4                     0                       # Read request sizes (log2)
system.mem_ctrls.readPktSize::5                     0                       # Read request sizes (log2)
system.mem_ctrls.readPktSize::6                     0                       # Read request sizes (log2)
system.mem_ctrls.writePktSize::0                    0                       # Write request sizes (log2)
system.mem_ctrls.writePktSize::1                    0                       # Write request sizes (log2)
system.mem_ctrls.writePktSize::2                    0                       # Write request sizes (log2)
system.mem_ctrls.writePktSize::3                    0                       # Write request sizes (log2)
system.mem_ctrls.writePktSize::4                    0                       # Write request sizes (log2)
system.mem_ctrls.writePktSize::5                    0                       # Write request sizes (log2)
system.mem_ctrls.writePktSize::6                    0                       # Write request sizes (log2)
system.mem_ctrls.rdQLenPdf::0                       0                       # What read queue length does an incoming req see
system.mem_ctrls.rdQLenPdf::1                       0                       # What read queue length does an incoming req see
system.mem_ctrls.rdQLenPdf::2                       0                       # What read queue length does an incoming req see
system.mem_ctrls.rdQLenPdf::3                       0                       # What read queue length does an incoming req see
system.mem_ctrls.rdQLenPdf::4                       0                       # What read queue length does an incoming req see
system.mem_ctrls.rdQLenPdf::5                       0                       # What read queue length does an incoming req see
system.mem_ctrls.rdQLenPdf::6                       0                       # What read queue length does an incoming req see
system.mem_ctrls.rdQLenPdf::7                       0                       # What read queue length does an incoming req see
system.mem_ctrls.rdQLenPdf::8                       0                       # What read queue length does an incoming req see
system.mem_ctrls.rdQLenPdf::9                       0                       # What read queue length does an incoming req see
system.mem_ctrls.rdQLenPdf::10                      0                       # What read queue length does an incoming req see
system.mem_ctrls.rdQLenPdf::11                      0                       # What read queue length does an incoming req see
system.mem_ctrls.rdQLenPdf::12                      0                       # What read queue length does an incoming req see
system.mem_ctrls.rdQLenPdf::13                      0                       # What read queue length does an incoming req see
system.mem_ctrls.rdQLenPdf::14                      0                       # What read queue length does an incoming req see
system.mem_ctrls.rdQLenPdf::15                      0                       # What read queue length does an incoming req see
system.mem_ctrls.rdQLenPdf::16                      0                       # What read queue length does an incoming req see
system.mem_ctrls.rdQLenPdf::17                      0                       # What read queue length does an incoming req see
system.mem_ctrls.rdQLenPdf::18                      0                       # What read queue length does an incoming req see
system.mem_ctrls.rdQLenPdf::19                      0                       # What read queue length does an incoming req see
system.mem_ctrls.rdQLenPdf::20                      0                       # What read queue length does an incoming req see
system.mem_ctrls.rdQLenPdf::21                      0                       # What read queue length does an incoming req see
system.mem_ctrls.rdQLenPdf::22                      0                       # What read queue length does an incoming req see
system.mem_ctrls.rdQLenPdf::23                      0                       # What read queue length does an incoming req see
system.mem_ctrls.rdQLenPdf::24                      0                       # What read queue length does an incoming req see
system.mem_ctrls.rdQLenPdf::25                      0                       # What read queue length does an incoming req see
system.mem_ctrls.rdQLenPdf::26                      0                       # What read queue length does an incoming req see
system.mem_ctrls.rdQLenPdf::27                      0                       # What read queue length does an incoming req see
system.mem_ctrls.rdQLenPdf::28                      0                       # What read queue length does an incoming req see
system.mem_ctrls.rdQLenPdf::29                      0                       # What read queue length does an incoming req see
system.mem_ctrls.rdQLenPdf::30                      0                       # What read queue length does an incoming req see
system.mem_ctrls.rdQLenPdf::31                      0                       # What read queue length does an incoming req see
system.mem_ctrls.wrQLenPdf::0                       0                       # What write queue length does an incoming req see
system.mem_ctrls.wrQLenPdf::1                       0                       # What write queue length does an incoming req see
system.mem_ctrls.wrQLenPdf::2                       0                       # What write queue length does an incoming req see
system.mem_ctrls.wrQLenPdf::3                       0                       # What write queue length does an incoming req see
system.mem_ctrls.wrQLenPdf::4                       0                       # What write queue length does an incoming req see
system.mem_ctrls.wrQLenPdf::5                       0                       # What write queue length does an incoming req see
system.mem_ctrls.wrQLenPdf::6                       0                       # What write queue length does an incoming req see
system.mem_ctrls.wrQLenPdf::7                       0                       # What write queue length does an incoming req see
system.mem_ctrls.wrQLenPdf::8                       0                       # What write queue length does an incoming req see
system.mem_ctrls.wrQLenPdf::9                       0                       # What write queue length does an incoming req see
system.mem_ctrls.wrQLenPdf::10                      0                       # What write queue length does an incoming req see
system.mem_ctrls.wrQLenPdf::11                      0                       # What write queue length does an incoming req see
system.mem_ctrls.wrQLenPdf::12                      0                       # What write queue length does an incoming req see
system.mem_ctrls.wrQLenPdf::13                      0                       # What write queue length does an incoming req see
system.mem_ctrls.wrQLenPdf::14                      0                       # What write queue length does an incoming req see
system.mem_ctrls.wrQLenPdf::15                      0                       # What write queue length does an incoming req see
system.mem_ctrls.wrQLenPdf::16                      0                       # What write queue length does an incoming req see
system.mem_ctrls.wrQLenPdf::17                      0                       # What write queue length does an incoming req see
system.mem_ctrls.wrQLenPdf::18                      0                       # What write queue length does an incoming req see
system.mem_ctrls.wrQLenPdf::19                      0                       # What write queue length does an incoming req see
system.mem_ctrls.wrQLenPdf::20                      0                       # What write queue length does an incoming req see
system.mem_ctrls.wrQLenPdf::21                      0                       # What write queue length does an incoming req see
system.mem_ctrls.wrQLenPdf::22                      0                       # What write queue length does an incoming req see
system.mem_ctrls.wrQLenPdf::23                      0                       # What write queue length does an incoming req see
system.mem_ctrls.wrQLenPdf::24                      0                       # What write queue length does an incoming req see
system.mem_ctrls.wrQLenPdf::25                      0                       # What write queue length does an incoming req see
system.mem_ctrls.wrQLenPdf::26                      0                       # What write queue length does an incoming req see
system.mem_ctrls.wrQLenPdf::27                      0                       # What write queue length does an incoming req see
system.mem_ctrls.wrQLenPdf::28                      0                       # What write queue length does an incoming req see
system.mem_ctrls.wrQLenPdf::29                      0                       # What write queue length does an incoming req see
system.mem_ctrls.wrQLenPdf::30                      0                       # What write queue length does an incoming req see
system.mem_ctrls.wrQLenPdf::31                      0                       # What write queue length does an incoming req see
system.mem_ctrls.wrQLenPdf::32                      0                       # What write queue length does an incoming req see
system.mem_ctrls.wrQLenPdf::33                      0                       # What write queue length does an incoming req see
system.mem_ctrls.wrQLenPdf::34                      0                       # What write queue length does an incoming req see
system.mem_ctrls.wrQLenPdf::35                      0                       # What write queue length does an incoming req see
system.mem_ctrls.wrQLenPdf::36                      0                       # What write queue length does an incoming req see
system.mem_ctrls.wrQLenPdf::37                      0                       # What write queue length does an incoming req see
system.mem_ctrls.wrQLenPdf::38                      0                       # What write queue length does an incoming req see
system.mem_ctrls.wrQLenPdf::39                      0                       # What write queue length does an incoming req see
system.mem_ctrls.wrQLenPdf::40                      0                       # What write queue length does an incoming req see
system.mem_ctrls.wrQLenPdf::41                      0                       # What write queue length does an incoming req see
system.mem_ctrls.wrQLenPdf::42                      0                       # What write queue length does an incoming req see
system.mem_ctrls.wrQLenPdf::43                      0                       # What write queue length does an incoming req see
system.mem_ctrls.wrQLenPdf::44                      0                       # What write queue length does an incoming req see
system.mem_ctrls.wrQLenPdf::45                      0                       # What write queue length does an incoming req see
system.mem_ctrls.wrQLenPdf::46                      0                       # What write queue length does an incoming req see
system.mem_ctrls.wrQLenPdf::47                      0                       # What write queue length does an incoming req see
system.mem_ctrls.wrQLenPdf::48                      0                       # What write queue length does an incoming req see
system.mem_ctrls.wrQLenPdf::49                      0                       # What write queue length does an incoming req see
system.mem_ctrls.wrQLenPdf::50                      0                       # What write queue length does an incoming req see
system.mem_ctrls.wrQLenPdf::51                      0                       # What write queue length does an incoming req see
system.mem_ctrls.wrQLenPdf::52                      0                       # What write queue length does an incoming req see
system.mem_ctrls.wrQLenPdf::53                      0                       # What write queue length does an incoming req see
system.mem_ctrls.wrQLenPdf::54                      0                       # What write queue length does an incoming req see
system.mem_ctrls.wrQLenPdf::55                      0                       # What write queue length does an incoming req see
system.mem_ctrls.wrQLenPdf::56                      0                       # What write queue length does an incoming req see
system.mem_ctrls.wrQLenPdf::57                      0                       # What write queue length does an incoming req see
system.mem_ctrls.wrQLenPdf::58                      0                       # What write queue length does an incoming req see
system.mem_ctrls.wrQLenPdf::59                      0                       # What write queue length does an incoming req see
system.mem_ctrls.wrQLenPdf::60                      0                       # What write queue length does an incoming req see
system.mem_ctrls.wrQLenPdf::61                      0                       # What write queue length does an incoming req see
system.mem_ctrls.wrQLenPdf::62                      0                       # What write queue length does an incoming req see
system.mem_ctrls.wrQLenPdf::63                      0                       # What write queue length does an incoming req see
system.mem_ctrls.totQLat                            0                       # Total ticks spent queuing
system.mem_ctrls.totMemAccLat                       0                       # Total ticks spent from burst creation until serviced by the DRAM
system.mem_ctrls.totBusLat                          0                       # Total ticks spent in databus transfers
system.mem_ctrls.avgQLat                          nan                       # Average queueing delay per DRAM burst
system.mem_ctrls.avgBusLat                        nan                       # Average bus latency per DRAM burst
system.mem_ctrls.avgMemAccLat                     nan                       # Average memory access latency per DRAM burst
system.mem_ctrls.avgRdBW                         0.00                       # Average DRAM read bandwidth in MiByte/s
system.mem_ctrls.avgWrBW                         0.00                       # Average achieved write bandwidth in MiByte/s
system.mem_ctrls.avgRdBWSys                      0.00                       # Average system read bandwidth in MiByte/s
system.mem_ctrls.avgWrBWSys                      0.00                       # Average system write bandwidth in MiByte/s
system.mem_ctrls.peakBW                      12800.00                       # Theoretical peak bandwidth in MiByte/s
system.mem_ctrls.busUtil                         0.00                       # Data bus utilization in percentage
system.mem_ctrls.busUtilRead                     0.00                       # Data bus utilization in percentage for reads
system.mem_ctrls.busUtilWrite                    0.00                       # Data bus utilization in percentage for writes
system.mem_ctrls.avgRdQLen                       0.00                       # Average read queue length when enqueuing
system.mem_ctrls.avgWrQLen                       0.00                       # Average write queue length when enqueuing
system.mem_ctrls.readRowHits                        0                       # Number of row buffer hits during reads
system.mem_ctrls.writeRowHits                       0                       # Number of row buffer hits during writes
system.mem_ctrls.readRowHitRate                   nan                       # Row buffer hit rate for reads
system.mem_ctrls.writeRowHitRate                  nan                       # Row buffer hit rate for writes
system.mem_ctrls.avgGap                           nan                       # Average gap between requests
system.mem_ctrls.pageHitRate                      nan                       # Row buffer hit rate, read and write combined
system.mem_ctrls_0.actEnergy                        0                       # Energy for activate commands per rank (pJ)
system.mem_ctrls_0.preEnergy                        0                       # Energy for precharge commands per rank (pJ)
system.mem_ctrls_0.readEnergy                       0                       # Energy for read commands per rank (pJ)
system.mem_ctrls_0.writeEnergy                      0                       # Energy for write commands per rank (pJ)
system.mem_ctrls_0.refreshEnergy                    0                       # Energy for refresh commands per rank (pJ)
system.mem_ctrls_0.actBackEnergy                    0                       # Energy for active background per rank (pJ)
system.mem_ctrls_0.preBackEnergy         1122229363200                       # Energy for precharge background per rank (pJ)
system.mem_ctrls_0.actPowerDownEnergy               0                       # Energy for active power-down per rank (pJ)
system.mem_ctrls_0.prePowerDownEnergy               0                       # Energy for precharge power-down per rank (pJ)
system.mem_ctrls_0.selfRefreshEnergy                0                       # Energy for self refresh per rank (pJ)
system.mem_ctrls_0.totalEnergy           1122229363200                       # Total energy per rank (pJ)
system.mem_ctrls_0.averagePower                   384                       # Core power per rank (mW)
system.mem_ctrls_0.totalIdleTime                    0                       # Total Idle time Per DRAM Rank
system.mem_ctrls_0.memoryStateTime::IDLE 2922472299500                       # Time in different power states
system.mem_ctrls_0.memoryStateTime::REF             0                       # Time in different power states
system.mem_ctrls_0.memoryStateTime::SREF            0                       # Time in different power states
system.mem_ctrls_0.memoryStateTime::PRE_PDN            0                       # Time in different power states
system.mem_ctrls_0.memoryStateTime::ACT             0                       # Time in different power states
system.mem_ctrls_0.memoryStateTime::ACT_PDN            0                       # Time in different power states
system.mem_ctrls_1.actEnergy                        0                       # Energy for activate commands per rank (pJ)
system.mem_ctrls_1.preEnergy                        0                       # Energy for precharge commands per rank (pJ)
system.mem_ctrls_1.readEnergy                       0                       # Energy for read commands per rank (pJ)
system.mem_ctrls_1.writeEnergy                      0                       # Energy for write commands per rank (pJ)
system.mem_ctrls_1.refreshEnergy                    0                       # Energy for refresh commands per rank (pJ)
system.mem_ctrls_1.actBackEnergy                    0                       # Energy for active background per rank (pJ)
system.mem_ctrls_1.preBackEnergy         1122229363200                       # Energy for precharge background per rank (pJ)
system.mem_ctrls_1.actPowerDownEnergy               0                       # Energy for active power-down per rank (pJ)
system.mem_ctrls_1.prePowerDownEnergy               0                       # Energy for precharge power-down per rank (pJ)
system.mem_ctrls_1.selfRefreshEnergy                0                       # Energy for self refresh per rank (pJ)
system.mem_ctrls_1.totalEnergy           1122229363200                       # Total energy per rank (pJ)
system.mem_ctrls_1.averagePower                   384                       # Core power per rank (mW)
system.mem_ctrls_1.totalIdleTime                    0                       # Total Idle time Per DRAM Rank
system.mem_ctrls_1.memoryStateTime::IDLE 2922472299500                       # Time in different power states
system.mem_ctrls_1.memoryStateTime::REF             0                       # Time in different power states
system.mem_ctrls_1.memoryStateTime::SREF            0                       # Time in different power states
system.mem_ctrls_1.memoryStateTime::PRE_PDN            0                       # Time in different power states
system.mem_ctrls_1.memoryStateTime::ACT             0                       # Time in different power states
system.mem_ctrls_1.memoryStateTime::ACT_PDN            0                       # Time in different power states
system.realview.nvmem.pwrStateResidencyTicks::UNDEFINED 2922472299500                       # Cumulative time (in ticks) in various power states
system.realview.vram.pwrStateResidencyTicks::UNDEFINED 2922472299500                       # Cumulative time (in ticks) in various power states
system.pwrStateResidencyTicks::UNDEFINED 2922472299500                       # Cumulative time (in ticks) in various power states
system.bridge.pwrStateResidencyTicks::UNDEFINED 2922472299500                       # Cumulative time (in ticks) in various power states
system.cf0.dma_read_full_pages                      0                       # Number of full page size DMA reads (not PRD).
system.cf0.dma_read_bytes                           0                       # Number of bytes transfered via DMA reads (not PRD).
system.cf0.dma_read_txs                             0                       # Number of DMA read transactions (not PRD).
system.cf0.dma_write_full_pages                     3                       # Number of full page size DMA writes.
system.cf0.dma_write_bytes                      16384                       # Number of bytes transfered via DMA writes.
system.cf0.dma_write_txs                            6                       # Number of DMA write transactions.
system.cpu_voltage_domain.voltage                   1                       # Voltage in Volts
system.cpu_clk_domain.clock                       500                       # Clock period in ticks
system.cpu.dstage2_mmu.stage2_tlb.walker.pwrStateResidencyTicks::UNDEFINED 2922472299500                       # Cumulative time (in ticks) in various power states
system.cpu.dstage2_mmu.stage2_tlb.walker.walks            0                       # Table walker walks requested
system.cpu.dstage2_mmu.stage2_tlb.walker.walkRequestOrigin_Requested::Data            0                       # Table walker requests started/completed, data/inst
system.cpu.dstage2_mmu.stage2_tlb.walker.walkRequestOrigin_Requested::Inst            0                       # Table walker requests started/completed, data/inst
system.cpu.dstage2_mmu.stage2_tlb.walker.walkRequestOrigin_Requested::total            0                       # Table walker requests started/completed, data/inst
system.cpu.dstage2_mmu.stage2_tlb.walker.walkRequestOrigin_Completed::Data            0                       # Table walker requests started/completed, data/inst
system.cpu.dstage2_mmu.stage2_tlb.walker.walkRequestOrigin_Completed::Inst            0                       # Table walker requests started/completed, data/inst
system.cpu.dstage2_mmu.stage2_tlb.walker.walkRequestOrigin_Completed::total            0                       # Table walker requests started/completed, data/inst
system.cpu.dstage2_mmu.stage2_tlb.walker.walkRequestOrigin::total            0                       # Table walker requests started/completed, data/inst
system.cpu.dstage2_mmu.stage2_tlb.inst_hits            0                       # ITB inst hits
system.cpu.dstage2_mmu.stage2_tlb.inst_misses            0                       # ITB inst misses
system.cpu.dstage2_mmu.stage2_tlb.read_hits            0                       # DTB read hits
system.cpu.dstage2_mmu.stage2_tlb.read_misses            0                       # DTB read misses
system.cpu.dstage2_mmu.stage2_tlb.write_hits            0                       # DTB write hits
system.cpu.dstage2_mmu.stage2_tlb.write_misses            0                       # DTB write misses
system.cpu.dstage2_mmu.stage2_tlb.flush_tlb            0                       # Number of times complete TLB was flushed
system.cpu.dstage2_mmu.stage2_tlb.flush_tlb_mva            0                       # Number of times TLB was flushed by MVA
system.cpu.dstage2_mmu.stage2_tlb.flush_tlb_mva_asid            0                       # Number of times TLB was flushed by MVA & ASID
system.cpu.dstage2_mmu.stage2_tlb.flush_tlb_asid            0                       # Number of times TLB was flushed by ASID
system.cpu.dstage2_mmu.stage2_tlb.flush_entries            0                       # Number of entries that have been flushed from TLB
system.cpu.dstage2_mmu.stage2_tlb.align_faults            0                       # Number of TLB faults due to alignment restrictions
system.cpu.dstage2_mmu.stage2_tlb.prefetch_faults            0                       # Number of TLB faults due to prefetch
system.cpu.dstage2_mmu.stage2_tlb.domain_faults            0                       # Number of TLB faults due to domain restrictions
system.cpu.dstage2_mmu.stage2_tlb.perms_faults            0                       # Number of TLB faults due to permissions restrictions
system.cpu.dstage2_mmu.stage2_tlb.read_accesses            0                       # DTB read accesses
system.cpu.dstage2_mmu.stage2_tlb.write_accesses            0                       # DTB write accesses
system.cpu.dstage2_mmu.stage2_tlb.inst_accesses            0                       # ITB inst accesses
system.cpu.dstage2_mmu.stage2_tlb.hits              0                       # DTB hits
system.cpu.dstage2_mmu.stage2_tlb.misses            0                       # DTB misses
system.cpu.dstage2_mmu.stage2_tlb.accesses            0                       # DTB accesses
system.cpu.dtb.walker.pwrStateResidencyTicks::UNDEFINED 2922472299500                       # Cumulative time (in ticks) in various power states
system.cpu.dtb.walker.walks                      2337                       # Table walker walks requested
system.cpu.dtb.walker.walksShort                 2337                       # Table walker walks initiated with short descriptors
system.cpu.dtb.walker.walkWaitTime::samples         2337                       # Table walker wait (enqueue to first request) latency
system.cpu.dtb.walker.walkWaitTime::0            2337    100.00%    100.00% # Table walker wait (enqueue to first request) latency
system.cpu.dtb.walker.walkWaitTime::total         2337                       # Table walker wait (enqueue to first request) latency
system.cpu.dtb.walker.walkPageSizes::4K          1477     80.23%     80.23% # Table walker page sizes translated
system.cpu.dtb.walker.walkPageSizes::1M           364     19.77%    100.00% # Table walker page sizes translated
system.cpu.dtb.walker.walkPageSizes::total         1841                       # Table walker page sizes translated
system.cpu.dtb.walker.walkRequestOrigin_Requested::Data         2337                       # Table walker requests started/completed, data/inst
system.cpu.dtb.walker.walkRequestOrigin_Requested::Inst            0                       # Table walker requests started/completed, data/inst
system.cpu.dtb.walker.walkRequestOrigin_Requested::total         2337                       # Table walker requests started/completed, data/inst
system.cpu.dtb.walker.walkRequestOrigin_Completed::Data         1841                       # Table walker requests started/completed, data/inst
system.cpu.dtb.walker.walkRequestOrigin_Completed::Inst            0                       # Table walker requests started/completed, data/inst
system.cpu.dtb.walker.walkRequestOrigin_Completed::total         1841                       # Table walker requests started/completed, data/inst
system.cpu.dtb.walker.walkRequestOrigin::total         4178                       # Table walker requests started/completed, data/inst
system.cpu.dtb.inst_hits                            0                       # ITB inst hits
system.cpu.dtb.inst_misses                          0                       # ITB inst misses
system.cpu.dtb.read_hits                      9378619                       # DTB read hits
system.cpu.dtb.read_misses                       2026                       # DTB read misses
system.cpu.dtb.write_hits                     5259441                       # DTB write hits
system.cpu.dtb.write_misses                       311                       # DTB write misses
system.cpu.dtb.flush_tlb                           18                       # Number of times complete TLB was flushed
system.cpu.dtb.flush_tlb_mva                      218                       # Number of times TLB was flushed by MVA
system.cpu.dtb.flush_tlb_mva_asid                   0                       # Number of times TLB was flushed by MVA & ASID
system.cpu.dtb.flush_tlb_asid                       0                       # Number of times TLB was flushed by ASID
system.cpu.dtb.flush_entries                     1192                       # Number of entries that have been flushed from TLB
system.cpu.dtb.align_faults                         0                       # Number of TLB faults due to alignment restrictions
system.cpu.dtb.prefetch_faults                    135                       # Number of TLB faults due to prefetch
system.cpu.dtb.domain_faults                        0                       # Number of TLB faults due to domain restrictions
system.cpu.dtb.perms_faults                       106                       # Number of TLB faults due to permissions restrictions
system.cpu.dtb.read_accesses                  9380645                       # DTB read accesses
system.cpu.dtb.write_accesses                 5259752                       # DTB write accesses
system.cpu.dtb.inst_accesses                        0                       # ITB inst accesses
system.cpu.dtb.hits                          14638060                       # DTB hits
system.cpu.dtb.misses                            2337                       # DTB misses
system.cpu.dtb.accesses                      14640397                       # DTB accesses
system.cpu.istage2_mmu.stage2_tlb.walker.pwrStateResidencyTicks::UNDEFINED 2922472299500                       # Cumulative time (in ticks) in various power states
system.cpu.istage2_mmu.stage2_tlb.walker.walks            0                       # Table walker walks requested
system.cpu.istage2_mmu.stage2_tlb.walker.walkRequestOrigin_Requested::Data            0                       # Table walker requests started/completed, data/inst
system.cpu.istage2_mmu.stage2_tlb.walker.walkRequestOrigin_Requested::Inst            0                       # Table walker requests started/completed, data/inst
system.cpu.istage2_mmu.stage2_tlb.walker.walkRequestOrigin_Requested::total            0                       # Table walker requests started/completed, data/inst
system.cpu.istage2_mmu.stage2_tlb.walker.walkRequestOrigin_Completed::Data            0                       # Table walker requests started/completed, data/inst
system.cpu.istage2_mmu.stage2_tlb.walker.walkRequestOrigin_Completed::Inst            0                       # Table walker requests started/completed, data/inst
system.cpu.istage2_mmu.stage2_tlb.walker.walkRequestOrigin_Completed::total            0                       # Table walker requests started/completed, data/inst
system.cpu.istage2_mmu.stage2_tlb.walker.walkRequestOrigin::total            0                       # Table walker requests started/completed, data/inst
system.cpu.istage2_mmu.stage2_tlb.inst_hits            0                       # ITB inst hits
system.cpu.istage2_mmu.stage2_tlb.inst_misses            0                       # ITB inst misses
system.cpu.istage2_mmu.stage2_tlb.read_hits            0                       # DTB read hits
system.cpu.istage2_mmu.stage2_tlb.read_misses            0                       # DTB read misses
system.cpu.istage2_mmu.stage2_tlb.write_hits            0                       # DTB write hits
system.cpu.istage2_mmu.stage2_tlb.write_misses            0                       # DTB write misses
system.cpu.istage2_mmu.stage2_tlb.flush_tlb            0                       # Number of times complete TLB was flushed
system.cpu.istage2_mmu.stage2_tlb.flush_tlb_mva            0                       # Number of times TLB was flushed by MVA
system.cpu.istage2_mmu.stage2_tlb.flush_tlb_mva_asid            0                       # Number of times TLB was flushed by MVA & ASID
system.cpu.istage2_mmu.stage2_tlb.flush_tlb_asid            0                       # Number of times TLB was flushed by ASID
system.cpu.istage2_mmu.stage2_tlb.flush_entries            0                       # Number of entries that have been flushed from TLB
system.cpu.istage2_mmu.stage2_tlb.align_faults            0                       # Number of TLB faults due to alignment restrictions
system.cpu.istage2_mmu.stage2_tlb.prefetch_faults            0                       # Number of TLB faults due to prefetch
system.cpu.istage2_mmu.stage2_tlb.domain_faults            0                       # Number of TLB faults due to domain restrictions
system.cpu.istage2_mmu.stage2_tlb.perms_faults            0                       # Number of TLB faults due to permissions restrictions
system.cpu.istage2_mmu.stage2_tlb.read_accesses            0                       # DTB read accesses
system.cpu.istage2_mmu.stage2_tlb.write_accesses            0                       # DTB write accesses
system.cpu.istage2_mmu.stage2_tlb.inst_accesses            0                       # ITB inst accesses
system.cpu.istage2_mmu.stage2_tlb.hits              0                       # DTB hits
system.cpu.istage2_mmu.stage2_tlb.misses            0                       # DTB misses
system.cpu.istage2_mmu.stage2_tlb.accesses            0                       # DTB accesses
system.cpu.itb.walker.pwrStateResidencyTicks::UNDEFINED 2922472299500                       # Cumulative time (in ticks) in various power states
system.cpu.itb.walker.walks                      1239                       # Table walker walks requested
system.cpu.itb.walker.walksShort                 1239                       # Table walker walks initiated with short descriptors
system.cpu.itb.walker.walkWaitTime::samples         1239                       # Table walker wait (enqueue to first request) latency
system.cpu.itb.walker.walkWaitTime::0            1239    100.00%    100.00% # Table walker wait (enqueue to first request) latency
system.cpu.itb.walker.walkWaitTime::total         1239                       # Table walker wait (enqueue to first request) latency
system.cpu.itb.walker.walkPageSizes::4K           738     89.13%     89.13% # Table walker page sizes translated
system.cpu.itb.walker.walkPageSizes::1M            90     10.87%    100.00% # Table walker page sizes translated
system.cpu.itb.walker.walkPageSizes::total          828                       # Table walker page sizes translated
system.cpu.itb.walker.walkRequestOrigin_Requested::Data            0                       # Table walker requests started/completed, data/inst
system.cpu.itb.walker.walkRequestOrigin_Requested::Inst         1239                       # Table walker requests started/completed, data/inst
system.cpu.itb.walker.walkRequestOrigin_Requested::total         1239                       # Table walker requests started/completed, data/inst
system.cpu.itb.walker.walkRequestOrigin_Completed::Data            0                       # Table walker requests started/completed, data/inst
system.cpu.itb.walker.walkRequestOrigin_Completed::Inst          828                       # Table walker requests started/completed, data/inst
system.cpu.itb.walker.walkRequestOrigin_Completed::total          828                       # Table walker requests started/completed, data/inst
system.cpu.itb.walker.walkRequestOrigin::total         2067                       # Table walker requests started/completed, data/inst
system.cpu.itb.inst_hits                     41644874                       # ITB inst hits
system.cpu.itb.inst_misses                       1239                       # ITB inst misses
system.cpu.itb.read_hits                            0                       # DTB read hits
system.cpu.itb.read_misses                          0                       # DTB read misses
system.cpu.itb.write_hits                           0                       # DTB write hits
system.cpu.itb.write_misses                         0                       # DTB write misses
system.cpu.itb.flush_tlb                           18                       # Number of times complete TLB was flushed
system.cpu.itb.flush_tlb_mva                      218                       # Number of times TLB was flushed by MVA
system.cpu.itb.flush_tlb_mva_asid                   0                       # Number of times TLB was flushed by MVA & ASID
system.cpu.itb.flush_tlb_asid                       0                       # Number of times TLB was flushed by ASID
system.cpu.itb.flush_entries                      790                       # Number of entries that have been flushed from TLB
system.cpu.itb.align_faults                         0                       # Number of TLB faults due to alignment restrictions
system.cpu.itb.prefetch_faults                      0                       # Number of TLB faults due to prefetch
system.cpu.itb.domain_faults                        0                       # Number of TLB faults due to domain restrictions
system.cpu.itb.perms_faults                         0                       # Number of TLB faults due to permissions restrictions
system.cpu.itb.read_accesses                        0                       # DTB read accesses
system.cpu.itb.write_accesses                       0                       # DTB write accesses
system.cpu.itb.inst_accesses                 41646113                       # ITB inst accesses
system.cpu.itb.hits                          41644874                       # DTB hits
system.cpu.itb.misses                            1239                       # DTB misses
system.cpu.itb.accesses                      41646113                       # DTB accesses
system.cpu.numPwrStateTransitions                 542                       # Number of power state transitions
system.cpu.pwrStateClkGateDist::samples           271                       # Distribution of time spent in the clock gated state
system.cpu.pwrStateClkGateDist::mean     395872301.118081                       # Distribution of time spent in the clock gated state
system.cpu.pwrStateClkGateDist::stdev    348223334.528457                       # Distribution of time spent in the clock gated state
system.cpu.pwrStateClkGateDist::underflows           70     25.83%     25.83% # Distribution of time spent in the clock gated state
system.cpu.pwrStateClkGateDist::1000-5e+10          201     74.17%    100.00% # Distribution of time spent in the clock gated state
system.cpu.pwrStateClkGateDist::min_value          501                       # Distribution of time spent in the clock gated state
system.cpu.pwrStateClkGateDist::max_value    848884832                       # Distribution of time spent in the clock gated state
system.cpu.pwrStateClkGateDist::total             271                       # Distribution of time spent in the clock gated state
system.cpu.pwrStateResidencyTicks::ON     25656515896                       # Cumulative time (in ticks) in various power states
system.cpu.pwrStateResidencyTicks::CLK_GATED 107281393603                       # Cumulative time (in ticks) in various power states
system.cpu.numCycles                        265423598                       # number of cpu cycles simulated
system.cpu.numWorkItemsStarted                      0                       # number of work items this cpu started
system.cpu.numWorkItemsCompleted                    0                       # number of work items this cpu completed
system.cpu.kern.inst.arm                            0                       # number of arm instructions executed
system.cpu.kern.inst.quiesce                      271                       # number of quiesce instructions executed
system.cpu.committedInsts                    39442205                       # Number of instructions committed
system.cpu.committedOps                      48656720                       # Number of ops (including micro ops) committed
system.cpu.num_int_alu_accesses              43779057                       # Number of integer alu accesses
system.cpu.num_fp_alu_accesses                   9569                       # Number of float alu accesses
system.cpu.num_vec_alu_accesses                     0                       # Number of vector alu accesses
system.cpu.num_func_calls                     7903972                       # number of times a function call or return occured
system.cpu.num_conditional_control_insts      4674026                       # number of instructions that are conditional controls
system.cpu.num_int_insts                     43779057                       # number of integer instructions
system.cpu.num_fp_insts                          9569                       # number of float instructions
system.cpu.num_vec_insts                            0                       # number of vector instructions
system.cpu.num_int_register_reads            86030596                       # number of times the integer registers were read
system.cpu.num_int_register_writes           31959933                       # number of times the integer registers were written
system.cpu.num_fp_register_reads                 8864                       # number of times the floating registers were read
system.cpu.num_fp_register_writes                1106                       # number of times the floating registers were written
system.cpu.num_vec_register_reads                   0                       # number of times the vector registers were read
system.cpu.num_vec_register_writes                  0                       # number of times the vector registers were written
system.cpu.num_cc_register_reads            151485856                       # number of times the CC registers were read
system.cpu.num_cc_register_writes            14768210                       # number of times the CC registers were written
system.cpu.num_mem_refs                      14710282                       # number of memory refs
system.cpu.num_load_insts                     9409715                       # Number of load instructions
system.cpu.num_store_insts                    5300567                       # Number of store instructions
system.cpu.num_idle_cycles               214563006.275239                       # Number of idle cycles
system.cpu.num_busy_cycles               50860591.724761                       # Number of busy cycles
system.cpu.not_idle_fraction                 0.191620                       # Percentage of non-idle cycles
system.cpu.idle_fraction                     0.808380                       # Percentage of idle cycles
system.cpu.Branches                          12656792                       # Number of branches fetched
system.cpu.op_class::No_OpClass                    73      0.00%      0.00% # Class of executed instruction
system.cpu.op_class::IntAlu                  35826757     70.84%     70.84% # Class of executed instruction
system.cpu.op_class::IntMult                    33719      0.07%     70.91% # Class of executed instruction
system.cpu.op_class::IntDiv                         0      0.00%     70.91% # Class of executed instruction
system.cpu.op_class::FloatAdd                       0      0.00%     70.91% # Class of executed instruction
system.cpu.op_class::FloatCmp                       0      0.00%     70.91% # Class of executed instruction
system.cpu.op_class::FloatCvt                       0      0.00%     70.91% # Class of executed instruction
system.cpu.op_class::FloatMult                      0      0.00%     70.91% # Class of executed instruction
system.cpu.op_class::FloatMultAcc                   0      0.00%     70.91% # Class of executed instruction
system.cpu.op_class::FloatDiv                       0      0.00%     70.91% # Class of executed instruction
system.cpu.op_class::FloatMisc                      0      0.00%     70.91% # Class of executed instruction
system.cpu.op_class::FloatSqrt                      0      0.00%     70.91% # Class of executed instruction
system.cpu.op_class::SimdAdd                        0      0.00%     70.91% # Class of executed instruction
system.cpu.op_class::SimdAddAcc                     0      0.00%     70.91% # Class of executed instruction
system.cpu.op_class::SimdAlu                        0      0.00%     70.91% # Class of executed instruction
system.cpu.op_class::SimdCmp                        0      0.00%     70.91% # Class of executed instruction
system.cpu.op_class::SimdCvt                        0      0.00%     70.91% # Class of executed instruction
system.cpu.op_class::SimdMisc                       0      0.00%     70.91% # Class of executed instruction
system.cpu.op_class::SimdMult                       0      0.00%     70.91% # Class of executed instruction
system.cpu.op_class::SimdMultAcc                    0      0.00%     70.91% # Class of executed instruction
system.cpu.op_class::SimdShift                      0      0.00%     70.91% # Class of executed instruction
system.cpu.op_class::SimdShiftAcc                   0      0.00%     70.91% # Class of executed instruction
system.cpu.op_class::SimdSqrt                       0      0.00%     70.91% # Class of executed instruction
system.cpu.op_class::SimdFloatAdd                   0      0.00%     70.91% # Class of executed instruction
system.cpu.op_class::SimdFloatAlu                   0      0.00%     70.91% # Class of executed instruction
system.cpu.op_class::SimdFloatCmp                   0      0.00%     70.91% # Class of executed instruction
system.cpu.op_class::SimdFloatCvt                   0      0.00%     70.91% # Class of executed instruction
system.cpu.op_class::SimdFloatDiv                   0      0.00%     70.91% # Class of executed instruction
system.cpu.op_class::SimdFloatMisc               1640      0.00%     70.91% # Class of executed instruction
system.cpu.op_class::SimdFloatMult                  0      0.00%     70.91% # Class of executed instruction
system.cpu.op_class::SimdFloatMultAcc               0      0.00%     70.91% # Class of executed instruction
system.cpu.op_class::SimdFloatSqrt                  0      0.00%     70.91% # Class of executed instruction
system.cpu.op_class::MemRead                  9408711     18.60%     89.52% # Class of executed instruction
system.cpu.op_class::MemWrite                 5292203     10.46%     99.98% # Class of executed instruction
system.cpu.op_class::FloatMemRead                1004      0.00%     99.98% # Class of executed instruction
system.cpu.op_class::FloatMemWrite               8364      0.02%    100.00% # Class of executed instruction
system.cpu.op_class::IprAccess                      0      0.00%    100.00% # Class of executed instruction
system.cpu.op_class::InstPrefetch                   0      0.00%    100.00% # Class of executed instruction
system.cpu.op_class::total                   50572471                       # Class of executed instruction
system.iobridge.pwrStateResidencyTicks::UNDEFINED 2922472299500                       # Cumulative time (in ticks) in various power states
system.iobus.pwrStateResidencyTicks::UNDEFINED 2922472299500                       # Cumulative time (in ticks) in various power states
system.iobus.trans_dist::ReadReq                 2734                       # Transaction distribution
system.iobus.trans_dist::ReadResp                2734                       # Transaction distribution
system.iobus.trans_dist::WriteReq                8345                       # Transaction distribution
system.iobus.trans_dist::WriteResp               8345                       # Transaction distribution
system.iobus.pkt_count_system.bridge.master::system.realview.uart.pio        17120                       # Packet count per connected master and slave (bytes)
system.iobus.pkt_count_system.bridge.master::system.realview.ide.pio          208                       # Packet count per connected master and slave (bytes)
system.iobus.pkt_count_system.bridge.master::system.realview.ethernet.pio          696                       # Packet count per connected master and slave (bytes)
system.iobus.pkt_count_system.bridge.master::system.realview.apollondev.pio          402                       # Packet count per connected master and slave (bytes)
system.iobus.pkt_count_system.bridge.master::total        18426                       # Packet count per connected master and slave (bytes)
system.iobus.pkt_count_system.realview.ide.dma::system.iobridge.slave          524                       # Packet count per connected master and slave (bytes)
system.iobus.pkt_count_system.realview.ide.dma::total          524                       # Packet count per connected master and slave (bytes)
system.iobus.pkt_count_system.realview.ethernet.dma::system.iobridge.slave            8                       # Packet count per connected master and slave (bytes)
system.iobus.pkt_count_system.realview.ethernet.dma::total            8                       # Packet count per connected master and slave (bytes)
system.iobus.pkt_count_system.realview.apollondev.dma::system.iobridge.slave         3200                       # Packet count per connected master and slave (bytes)
system.iobus.pkt_count_system.realview.apollondev.dma::total         3200                       # Packet count per connected master and slave (bytes)
system.iobus.pkt_count::total                   22158                       # Packet count per connected master and slave (bytes)
system.iobus.pkt_size_system.bridge.master::system.realview.uart.pio        17120                       # Cumulative packet size per connected master and slave (bytes)
system.iobus.pkt_size_system.bridge.master::system.realview.ide.pio          116                       # Cumulative packet size per connected master and slave (bytes)
system.iobus.pkt_size_system.bridge.master::system.realview.ethernet.pio         1392                       # Cumulative packet size per connected master and slave (bytes)
system.iobus.pkt_size_system.bridge.master::system.realview.apollondev.pio          804                       # Cumulative packet size per connected master and slave (bytes)
system.iobus.pkt_size_system.bridge.master::total        19432                       # Cumulative packet size per connected master and slave (bytes)
system.iobus.pkt_size_system.realview.ide.dma::system.iobridge.slave        16432                       # Cumulative packet size per connected master and slave (bytes)
system.iobus.pkt_size_system.realview.ide.dma::total        16432                       # Cumulative packet size per connected master and slave (bytes)
system.iobus.pkt_size_system.realview.ethernet.dma::system.iobridge.slave          122                       # Cumulative packet size per connected master and slave (bytes)
system.iobus.pkt_size_system.realview.ethernet.dma::total          122                       # Cumulative packet size per connected master and slave (bytes)
system.iobus.pkt_size_system.realview.apollondev.dma::system.iobridge.slave        92800                       # Cumulative packet size per connected master and slave (bytes)
system.iobus.pkt_size_system.realview.apollondev.dma::total        92800                       # Cumulative packet size per connected master and slave (bytes)
system.iobus.pkt_size::total                   128786                       # Cumulative packet size per connected master and slave (bytes)
system.membus.snoop_filter.tot_requests             0                       # Total number of requests made to the snoop filter.
system.membus.snoop_filter.hit_single_requests            0                       # Number of requests hitting in the snoop filter with a single holder of the requested data.
system.membus.snoop_filter.hit_multi_requests            0                       # Number of requests hitting in the snoop filter with multiple (>1) holders of the requested data.
system.membus.snoop_filter.tot_snoops               0                       # Total number of snoops made to the snoop filter.
system.membus.snoop_filter.hit_single_snoops            0                       # Number of snoops hitting in the snoop filter with a single holder of the requested data.
system.membus.snoop_filter.hit_multi_snoops            0                       # Number of snoops hitting in the snoop filter with multiple (>1) holders of the requested data.
system.membus.pwrStateResidencyTicks::UNDEFINED 2922472299500                       # Cumulative time (in ticks) in various power states
system.membus.trans_dist::ReadReq            50963185                       # Transaction distribution
system.membus.trans_dist::ReadResp           50995842                       # Transaction distribution
system.membus.trans_dist::WriteReq            5227840                       # Transaction distribution
system.membus.trans_dist::WriteResp           5227840                       # Transaction distribution
system.membus.trans_dist::SoftPFReq             38282                       # Transaction distribution
system.membus.trans_dist::SoftPFResp            38282                       # Transaction distribution
system.membus.trans_dist::LoadLockedReq         32657                       # Transaction distribution
system.membus.trans_dist::StoreCondReq          32084                       # Transaction distribution
system.membus.trans_dist::StoreCondResp         32084                       # Transaction distribution
system.membus.pkt_count_system.iobridge.master::system.mem_ctrls.port         3732                       # Packet count per connected master and slave (bytes)
system.membus.pkt_count_system.iobridge.master::total         3732                       # Packet count per connected master and slave (bytes)
system.membus.pkt_count_system.cpu.icache_port::system.mem_ctrls.port     83291404                       # Packet count per connected master and slave (bytes)
system.membus.pkt_count_system.cpu.icache_port::total     83291404                       # Packet count per connected master and slave (bytes)
system.membus.pkt_count_system.cpu.dcache_port::system.bridge.slave        18426                       # Packet count per connected master and slave (bytes)
system.membus.pkt_count_system.cpu.dcache_port::system.realview.gic.pio         3876                       # Packet count per connected master and slave (bytes)
system.membus.pkt_count_system.cpu.dcache_port::system.mem_ctrls.port     29257286                       # Packet count per connected master and slave (bytes)
system.membus.pkt_count_system.cpu.dcache_port::total     29279588                       # Packet count per connected master and slave (bytes)
system.membus.pkt_count_system.cpu.itb.walker.dma::system.mem_ctrls.port         4776                       # Packet count per connected master and slave (bytes)
system.membus.pkt_count_system.cpu.itb.walker.dma::total         4776                       # Packet count per connected master and slave (bytes)
system.membus.pkt_count_system.cpu.dtb.walker.dma::system.mem_ctrls.port         8596                       # Packet count per connected master and slave (bytes)
system.membus.pkt_count_system.cpu.dtb.walker.dma::total         8596                       # Packet count per connected master and slave (bytes)
system.membus.pkt_count::total              112588096                       # Packet count per connected master and slave (bytes)
system.membus.pkt_size_system.iobridge.master::system.mem_ctrls.port       109354                       # Cumulative packet size per connected master and slave (bytes)
system.membus.pkt_size_system.iobridge.master::total       109354                       # Cumulative packet size per connected master and slave (bytes)
system.membus.pkt_size_system.cpu.icache_port::system.mem_ctrls.port    166582808                       # Cumulative packet size per connected master and slave (bytes)
system.membus.pkt_size_system.cpu.icache_port::total    166582808                       # Cumulative packet size per connected master and slave (bytes)
system.membus.pkt_size_system.cpu.dcache_port::system.bridge.slave        19432                       # Cumulative packet size per connected master and slave (bytes)
system.membus.pkt_size_system.cpu.dcache_port::system.realview.gic.pio         7752                       # Cumulative packet size per connected master and slave (bytes)
system.membus.pkt_size_system.cpu.dcache_port::system.mem_ctrls.port     67167681                       # Cumulative packet size per connected master and slave (bytes)
system.membus.pkt_size_system.cpu.dcache_port::total     67194865                       # Cumulative packet size per connected master and slave (bytes)
system.membus.pkt_size_system.cpu.itb.walker.dma::system.mem_ctrls.port         9552                       # Cumulative packet size per connected master and slave (bytes)
system.membus.pkt_size_system.cpu.itb.walker.dma::total         9552                       # Cumulative packet size per connected master and slave (bytes)
system.membus.pkt_size_system.cpu.dtb.walker.dma::system.mem_ctrls.port        17192                       # Cumulative packet size per connected master and slave (bytes)
system.membus.pkt_size_system.cpu.dtb.walker.dma::total        17192                       # Cumulative packet size per connected master and slave (bytes)
system.membus.pkt_size::total               233913771                       # Cumulative packet size per connected master and slave (bytes)
system.membus.snoops                                0                       # Total snoops (count)
system.membus.snoopTraffic                          0                       # Total snoop traffic (bytes)
system.membus.snoop_fanout::samples          56294048                       # Request fanout histogram
system.membus.snoop_fanout::mean                    0                       # Request fanout histogram
system.membus.snoop_fanout::stdev                   0                       # Request fanout histogram
system.membus.snoop_fanout::underflows              0      0.00%      0.00% # Request fanout histogram
system.membus.snoop_fanout::0                56294048    100.00%    100.00% # Request fanout histogram
system.membus.snoop_fanout::1                       0      0.00%    100.00% # Request fanout histogram
system.membus.snoop_fanout::overflows               0      0.00%    100.00% # Request fanout histogram
system.membus.snoop_fanout::min_value               0                       # Request fanout histogram
system.membus.snoop_fanout::max_value               0                       # Request fanout histogram
system.membus.snoop_fanout::total            56294048                       # Request fanout histogram
system.membus.badaddr_responder.pwrStateResidencyTicks::UNDEFINED 2922472299500                       # Cumulative time (in ticks) in various power states
system.realview.aaci_fake.pwrStateResidencyTicks::UNDEFINED 2922472299500                       # Cumulative time (in ticks) in various power states
system.realview.gic.pwrStateResidencyTicks::UNDEFINED 2922472299500                       # Cumulative time (in ticks) in various power states
system.realview.apollondev.pwrStateResidencyTicks::UNDEFINED 2922472299500                       # Cumulative time (in ticks) in various power states
system.realview.pci_host.pwrStateResidencyTicks::UNDEFINED 2922472299500                       # Cumulative time (in ticks) in various power states
system.realview.cf_ctrl.pwrStateResidencyTicks::UNDEFINED 2922472299500                       # Cumulative time (in ticks) in various power states
system.realview.clcd.pwrStateResidencyTicks::UNDEFINED 2922472299500                       # Cumulative time (in ticks) in various power states
system.realview.realview_io.pwrStateResidencyTicks::UNDEFINED 2922472299500                       # Cumulative time (in ticks) in various power states
system.realview.dcc.osc_cpu.clock               16667                       # Clock period in ticks
system.realview.dcc.osc_ddr.clock               25000                       # Clock period in ticks
system.realview.dcc.osc_hsbm.clock              25000                       # Clock period in ticks
system.realview.dcc.osc_pxl.clock               42105                       # Clock period in ticks
system.realview.dcc.osc_smb.clock               20000                       # Clock period in ticks
system.realview.dcc.osc_sys.clock               16667                       # Clock period in ticks
system.realview.energy_ctrl.pwrStateResidencyTicks::UNDEFINED 2922472299500                       # Cumulative time (in ticks) in various power states
system.realview.ethernet.pwrStateResidencyTicks::UNDEFINED 2922472299500                       # Cumulative time (in ticks) in various power states
system.realview.ethernet.txBytes                   90                       # Bytes Transmitted
system.realview.ethernet.txPackets                  1                       # Number of Packets Transmitted
system.realview.ethernet.txIpChecksums              0                       # Number of tx IP Checksums done by device
system.realview.ethernet.txTcpChecksums             0                       # Number of tx TCP Checksums done by device
system.realview.ethernet.txUdpChecksums             0                       # Number of tx UDP Checksums done by device
system.realview.ethernet.descDMAReads               0                       # Number of descriptors the device read w/ DMA
system.realview.ethernet.descDMAWrites              0                       # Number of descriptors the device wrote w/ DMA
system.realview.ethernet.descDmaReadBytes            0                       # number of descriptor bytes read w/ DMA
system.realview.ethernet.descDmaWriteBytes            0                       # number of descriptor bytes write w/ DMA
system.realview.ethernet.totBandwidth            5425                       # Total Bandwidth (bits/s)
system.realview.ethernet.totPackets                 1                       # Total Packets
system.realview.ethernet.totBytes                  90                       # Total Bytes
system.realview.ethernet.totPPS                     8                       # Total Tranmission Rate (packets/s)
system.realview.ethernet.txBandwidth             5425                       # Transmit Bandwidth (bits/s)
system.realview.ethernet.txPPS                      8                       # Packet Tranmission Rate (packets/s)
system.realview.ethernet.postedSwi                  0                       # number of software interrupts posted to CPU
system.realview.ethernet.coalescedSwi               0                       # average number of Swi's coalesced into each post
system.realview.ethernet.totalSwi                   0                       # total number of Swi written to ISR
system.realview.ethernet.postedRxIdle               0                       # number of rxIdle interrupts posted to CPU
system.realview.ethernet.coalescedRxIdle            0                       # average number of RxIdle's coalesced into each post
system.realview.ethernet.totalRxIdle                0                       # total number of RxIdle written to ISR
system.realview.ethernet.postedRxOk                 0                       # number of RxOk interrupts posted to CPU
system.realview.ethernet.coalescedRxOk              0                       # average number of RxOk's coalesced into each post
system.realview.ethernet.totalRxOk                  0                       # total number of RxOk written to ISR
system.realview.ethernet.postedRxDesc               0                       # number of RxDesc interrupts posted to CPU
system.realview.ethernet.coalescedRxDesc            0                       # average number of RxDesc's coalesced into each post
system.realview.ethernet.totalRxDesc                0                       # total number of RxDesc written to ISR
system.realview.ethernet.postedTxOk                 0                       # number of TxOk interrupts posted to CPU
system.realview.ethernet.coalescedTxOk              0                       # average number of TxOk's coalesced into each post
system.realview.ethernet.totalTxOk                  0                       # total number of TxOk written to ISR
system.realview.ethernet.postedTxIdle               0                       # number of TxIdle interrupts posted to CPU
system.realview.ethernet.coalescedTxIdle            0                       # average number of TxIdle's coalesced into each post
system.realview.ethernet.totalTxIdle                0                       # total number of TxIdle written to ISR
system.realview.ethernet.postedTxDesc               0                       # number of TxDesc interrupts posted to CPU
system.realview.ethernet.coalescedTxDesc            0                       # average number of TxDesc's coalesced into each post
system.realview.ethernet.totalTxDesc                0                       # total number of TxDesc written to ISR
system.realview.ethernet.postedRxOrn                0                       # number of RxOrn posted to CPU
system.realview.ethernet.coalescedRxOrn             0                       # average number of RxOrn's coalesced into each post
system.realview.ethernet.totalRxOrn                 0                       # total number of RxOrn written to ISR
system.realview.ethernet.coalescedTotal             0                       # average number of interrupts coalesced into each post
system.realview.ethernet.postedInterrupts            4                       # number of posts to CPU
system.realview.ethernet.droppedPackets             0                       # number of packets dropped
system.realview.hdlcd.pwrStateResidencyTicks::UNDEFINED 2922472299500                       # Cumulative time (in ticks) in various power states
system.realview.ide.pwrStateResidencyTicks::UNDEFINED 2922472299500                       # Cumulative time (in ticks) in various power states
system.realview.kmi0.pwrStateResidencyTicks::UNDEFINED 2922472299500                       # Cumulative time (in ticks) in various power states
system.realview.kmi1.pwrStateResidencyTicks::UNDEFINED 2922472299500                       # Cumulative time (in ticks) in various power states
system.realview.l2x0_fake.pwrStateResidencyTicks::UNDEFINED 2922472299500                       # Cumulative time (in ticks) in various power states
system.realview.lan_fake.pwrStateResidencyTicks::UNDEFINED 2922472299500                       # Cumulative time (in ticks) in various power states
system.realview.local_cpu_timer.pwrStateResidencyTicks::UNDEFINED 2922472299500                       # Cumulative time (in ticks) in various power states
system.realview.mcc.osc_clcd.clock              42105                       # Clock period in ticks
system.realview.mcc.osc_mcc.clock               20000                       # Clock period in ticks
system.realview.mcc.osc_peripheral.clock        41667                       # Clock period in ticks
system.realview.mcc.osc_system_bus.clock        41667                       # Clock period in ticks
system.realview.mmc_fake.pwrStateResidencyTicks::UNDEFINED 2922472299500                       # Cumulative time (in ticks) in various power states
system.realview.rtc.pwrStateResidencyTicks::UNDEFINED 2922472299500                       # Cumulative time (in ticks) in various power states
system.realview.sp810_fake.pwrStateResidencyTicks::UNDEFINED 2922472299500                       # Cumulative time (in ticks) in various power states
system.realview.timer0.pwrStateResidencyTicks::UNDEFINED 2922472299500                       # Cumulative time (in ticks) in various power states
system.realview.timer1.pwrStateResidencyTicks::UNDEFINED 2922472299500                       # Cumulative time (in ticks) in various power states
system.realview.uart.pwrStateResidencyTicks::UNDEFINED 2922472299500                       # Cumulative time (in ticks) in various power states
system.realview.uart1_fake.pwrStateResidencyTicks::UNDEFINED 2922472299500                       # Cumulative time (in ticks) in various power states
system.realview.uart2_fake.pwrStateResidencyTicks::UNDEFINED 2922472299500                       # Cumulative time (in ticks) in various power states
system.realview.uart3_fake.pwrStateResidencyTicks::UNDEFINED 2922472299500                       # Cumulative time (in ticks) in various power states
system.realview.usb_fake.pwrStateResidencyTicks::UNDEFINED 2922472299500                       # Cumulative time (in ticks) in various power states
system.realview.vgic.pwrStateResidencyTicks::UNDEFINED 2922472299500                       # Cumulative time (in ticks) in various power states
system.realview.watchdog_fake.pwrStateResidencyTicks::UNDEFINED 2922472299500                       # Cumulative time (in ticks) in various power states

---------- End Simulation Statistics   ----------
